Invalid MIT-MAGIC-COOKIE-1 key/*---------------------------------------------------------------------------*\
  =========                 |
  \\      /  F ield         | OpenFOAM: The Open Source CFD Toolbox
   \\    /   O peration     | Website:  https://openfoam.org
    \\  /    A nd           | Version:  8
     \\/     M anipulation  |
\*---------------------------------------------------------------------------*/
Build  : 8
Exec   : checkMesh -parallel
Date   : Nov 15 2020
Time   : 17:49:03
Host   : "edo20-HP-Pavilion-Notebook"
PID    : 79931
I/O    : uncollated
Case   : /home/edo20/Piscaglia/Shared_docker_folder/Shared_CTTP/testEdo/3D/combustorSimple
nProcs : 4
Slaves : 
3
(
"edo20-HP-Pavilion-Notebook.79932"
"edo20-HP-Pavilion-Notebook.79933"
"edo20-HP-Pavilion-Notebook.79934"
)

Pstream initialized with:
    floatTransfer      : 0
    nProcsSimpleSum    : 0
    commsType          : nonBlocking
    polling iterations : 0
sigFpe : Enabling floating point exception trapping (FOAM_SIGFPE).
fileModificationChecking : Monitoring run-time modified files using timeStampMaster (fileModificationSkew 10)
allowSystemOperations : Allowing user-supplied system call operations

// * * * * * * * * * * * * * * * * * * * * * * * * * * * * * * * * * * * * * //
Create time

Create polyMesh for time = 0

Time = 0

Mesh stats
    points:           39060
    faces:            110592
    internal faces:   104448
    cells:            35840
    faces per cell:   6
    boundary patches: 4
    point zones:      0
    face zones:       0
    cell zones:       0

Overall number of cells of each type:
    hexahedra:     35840
    prisms:        0
    wedges:        0
    pyramids:      0
    tet wedges:    0
    tetrahedra:    0
    polyhedra:     0

Checking topology...
    Boundary definition OK.
    Cell to face addressing OK.
    Point usage OK.
    Upper triangular ordering OK.
    Face vertices OK.
    Number of regions: 1 (OK).

Checking basic patch addressing...
    Patch               Faces    Points   
    outerWalls          2560     2688     
    outlet              448      465      
    inlet               448      465      

Checking geometry...
    Overall domain bounding box (-0.12 -0.3 -0.12) (0.12 0.5 0.12)
    Mesh has 3 geometric (non-empty/wedge) directions (1 1 1)
    Mesh has 3 solution (non-empty) directions (1 1 1)
    Boundary openness (5.0726453e-18 2.7228833e-16 4.7908317e-18) OK.
    Max cell openness = 2.3923859e-16 OK.
    Max aspect ratio = 5.7989677 OK.
    Minimum face area = 1.4134783e-05. Maximum face area = 0.00023524114.  Face area magnitudes OK.
    Min volume = 3.449613e-07. Max volume = 1.809901e-06.  Total volume = 0.035959048.  Cell volumes OK.
    Mesh non-orthogonality Max: 28.7649 average: 5.7417997
    Non-orthogonality check OK.
    Face pyramids OK.
    Max skewness = 0.9051284 OK.
    Coupled point location match (average 0) OK.

Mesh OK.

--> FOAM Warning : 
    From function virtual Foam::polyMesh::readUpdateState Foam::polyMesh::readUpdate()
    in file meshes/polyMesh/polyMeshIO.C at line 209
    unexpected consequences.  Proceed with care.
Time = 1

Mesh stats
    points:           1675297
    faces:            4857996
    internal faces:   4801332
    cells:            1591839
    faces per cell:   6.0680307
    boundary patches: 11
    point zones:      0
    face zones:       0
    cell zones:       0

Overall number of cells of each type:
    hexahedra:     1556001
    prisms:        0
    wedges:        0
    pyramids:      0
    tet wedges:    0
    tetrahedra:    0
    polyhedra:     35838
    Breakdown of polyhedra by number of faces:
        faces   number of cells
            6   4736
            9   26151
           12   4912
           15   33
           18   6

Checking topology...
    Boundary definition OK.
    Cell to face addressing OK.
    Point usage OK.
    Upper triangular ordering OK.
    Face vertices OK.
    Number of regions: 1 (OK).

Checking basic patch addressing...
                   Patch    Faces   Points
              outerWalls     2560     2689
                  outlet      448      465
                   inlet      448      465
           splitterFront     2640     2775
           splitterRight      192      225
            splitterRear     2640     2775
            splitterLeft      192      225
          splitterBottom      512      631
             splitterTop      512      631

Checking geometry...
    Overall domain bounding box (-0.12 -0.3 -0.12) (0.12 0.5 0.12)
    Mesh has 3 geometric (non-empty/wedge) directions (1 1 1)
    Mesh has 3 solution (non-empty) directions (1 1 1)
    Boundary openness (1.1333715e-16 -2.2576785e-14 2.0335158e-17) OK.
    Max cell openness = 4.9185595e-16 OK.
    Max aspect ratio = 5.7989678 OK.
    Minimum face area = 1.0450442e-06. Maximum face area = 0.00023524114.  Face area magnitudes OK.
    Min volume = 1.3063053e-09. Max volume = 1.8099002e-06.  Total volume = 0.035935047.  Cell volumes OK.
    Mesh non-orthogonality Max: 54.037883 average: 8.0404187
    Non-orthogonality check OK.
    Face pyramids OK.
    Max skewness = 1.2331927 OK.
    Coupled point location match (average 0) OK.

Mesh OK.

Time = 2

Mesh stats
    points:           1673181
    faces:            4855788
    internal faces:   4801332
    cells:            1591839
    faces per cell:   6.0666437
    boundary patches: 11
    point zones:      0
    face zones:       0
    cell zones:       0

Overall number of cells of each type:
    hexahedra:     1553793
    prisms:        2024
    wedges:        0
    pyramids:      0
    tet wedges:    0
    tetrahedra:    0
    polyhedra:     36022
    Breakdown of polyhedra by number of faces:
        faces   number of cells
            5   184
            6   4736
            9   26151
           12   4912
           15   33
           18   6

Checking topology...
    Boundary definition OK.
    Cell to face addressing OK.
    Point usage OK.
    Upper triangular ordering OK.
    Face vertices OK.
    Number of regions: 1 (OK).

Checking basic patch addressing...
                   Patch    Faces   Points
              outerWalls     2560     2689
                  outlet      448      465
                   inlet      448      465
           splitterFront     1536     1717
           splitterRight      192      225
            splitterRear     1536     1717
            splitterLeft      192      225
          splitterBottom      512      631
             splitterTop      512      631

Checking geometry...
    Overall domain bounding box (-0.11999998 -0.3 -0.11999998) (0.11999997 0.5 0.11999998)
    Mesh has 3 geometric (non-empty/wedge) directions (1 1 1)
    Mesh has 3 solution (non-empty) directions (1 1 1)
    Boundary openness (-5.0764448e-17 -4.8516927e-15 4.0384593e-17) OK.
    Max cell openness = 6.9333291e-15 OK.
    Max aspect ratio = 102.89869 OK.
    Minimum face area = 1.0264265e-07. Maximum face area = 0.00023916032.  Face area magnitudes OK.
    Min volume = 1.2833277e-10. Max volume = 1.8872662e-06.  Total volume = 0.035930418.  Cell volumes OK.
    Mesh non-orthogonality Max: 64.999189 average: 8.2393043
    Non-orthogonality check OK.
    Face pyramids OK.
    Max skewness = 1.2319997 OK.
    Coupled point location match (average 0) OK.

Mesh OK.

--> FOAM Warning : 
    From function virtual Foam::polyMesh::readUpdateState Foam::polyMesh::readUpdate()
    in file meshes/polyMesh/polyMeshIO.C at line 209
    unexpected consequences.  Proceed with care.
Time = 3

Mesh stats
    points:           1679257
    faces:            4873376
    internal faces:   4818580
    cells:            1597599
    faces per cell:   6.0665762
    boundary patches: 11
    point zones:      0
    face zones:       0
    cell zones:       0

Overall number of cells of each type:
    hexahedra:     1559277
    prisms:        2024
    wedges:        0
    pyramids:      0
    tet wedges:    0
    tetrahedra:    0
    polyhedra:     36298
    Breakdown of polyhedra by number of faces:
        faces   number of cells
            5   184
            6   4736
            7   276
            9   26151
           12   4912
           15   33
           18   6

Checking topology...
    Boundary definition OK.
    Cell to face addressing OK.
    Point usage OK.
    Upper triangular ordering OK.
    Face vertices OK.
    Number of regions: 1 (OK).

Checking basic patch addressing...
                   Patch    Faces   Points
              outerWalls     2560     2697
                  outlet      448      465
                   inlet      448      465
           splitterFront     1536     1717
           splitterRight      192      225
            splitterRear     1680     1867
            splitterLeft      192      225
          splitterBottom      890     1012
             splitterTop      890     1012

Checking geometry...
    Overall domain bounding box (-0.11999998 -0.3 -0.11999998) (0.11999997 0.5 0.11999998)
    Mesh has 3 geometric (non-empty/wedge) directions (1 1 1)
    Mesh has 3 solution (non-empty) directions (1 1 1)
    Boundary openness (-5.8870687e-17 4.4361197e-16 2.3840752e-18) OK.
    Max cell openness = 7.9281273e-15 OK.
    Max aspect ratio = 103.31543 OK.
    Minimum face area = 6.4419648e-08. Maximum face area = 0.00023916032.  Face area magnitudes OK.
    Min volume = 1.0866448e-10. Max volume = 1.8888002e-06.  Total volume = 0.035930418.  Cell volumes OK.
    Mesh non-orthogonality Max: 64.999927 average: 8.234893
    Non-orthogonality check OK.
    Face pyramids OK.
    Max skewness = 1.8645643 OK.
    Coupled point location match (average 0) OK.

Mesh OK.

End

Finalising parallel run
