/*---------------------------------------------------------------------------*\
  =========                 |
  \\      /  F ield         | OpenFOAM: The Open Source CFD Toolbox
   \\    /   O peration     | Website:  https://openfoam.org
    \\  /    A nd           | Version:  8
     \\/     M anipulation  |
\*---------------------------------------------------------------------------*/
Build  : 8
Exec   : decomposePar
Date   : Nov 15 2020
Time   : 17:33:22
Host   : "edo20-HP-Pavilion-Notebook"
PID    : 79502
I/O    : uncollated
Case   : /home/edo20/Piscaglia/Shared_docker_folder/Shared_CTTP/testEdo/3D/combustorSimple
nProcs : 1
sigFpe : Enabling floating point exception trapping (FOAM_SIGFPE).
fileModificationChecking : Monitoring run-time modified files using timeStampMaster (fileModificationSkew 10)
allowSystemOperations : Allowing user-supplied system call operations

// * * * * * * * * * * * * * * * * * * * * * * * * * * * * * * * * * * * * * //
Create time



Decomposing mesh region0

Create mesh

Calculating distribution of cells
Selecting decompositionMethod scotch

Finished decomposition in 0.12 s

Calculating original mesh data

Distributing cells to processors

Distributing faces to processors

Distributing points to processors

Constructing processor meshes

Processor 0
    Number of cells = 8960
    Number of faces shared with processor 1 = 448
    Number of processor patches = 1
    Number of processor faces = 448
    Number of boundary faces = 1088

Processor 1
    Number of cells = 8960
    Number of faces shared with processor 0 = 448
    Number of faces shared with processor 3 = 448
    Number of processor patches = 2
    Number of processor faces = 896
    Number of boundary faces = 640

Processor 2
    Number of cells = 8960
    Number of faces shared with processor 3 = 448
    Number of processor patches = 1
    Number of processor faces = 448
    Number of boundary faces = 1088

Processor 3
    Number of cells = 8960
    Number of faces shared with processor 1 = 448
    Number of faces shared with processor 2 = 448
    Number of processor patches = 2
    Number of processor faces = 896
    Number of boundary faces = 640

Number of processor faces = 1344
Max number of cells = 8960 (0% above average 8960)
Max number of processor patches = 2 (33.333333% above average 1.5)
Max number of faces between processors = 896 (33.333333% above average 672)

Time = 0

Processor 0: field transfer
Processor 1: field transfer
Processor 2: field transfer
Processor 3: field transfer

End

