Invalid MIT-MAGIC-COOKIE-1 key/*---------------------------------------------------------------------------*\
  =========                 |
  \\      /  F ield         | OpenFOAM: The Open Source CFD Toolbox
   \\    /   O peration     | Website:  https://openfoam.org
    \\  /    A nd           | Version:  8
     \\/     M anipulation  |
\*---------------------------------------------------------------------------*/
Build  : 8
Exec   : simpleFoam -parallel
Date   : Nov 15 2020
Time   : 18:50:30
Host   : "edo20-HP-Pavilion-Notebook"
PID    : 81960
I/O    : uncollated
Case   : /home/edo20/Piscaglia/Shared_docker_folder/Shared_CTTP/testEdo/3D/combustorSimple
nProcs : 4
Slaves : 
3
(
"edo20-HP-Pavilion-Notebook.81961"
"edo20-HP-Pavilion-Notebook.81962"
"edo20-HP-Pavilion-Notebook.81963"
)

Pstream initialized with:
    floatTransfer      : 0
    nProcsSimpleSum    : 0
    commsType          : nonBlocking
    polling iterations : 0
sigFpe : Enabling floating point exception trapping (FOAM_SIGFPE).
fileModificationChecking : Monitoring run-time modified files using timeStampMaster (fileModificationSkew 10)
allowSystemOperations : Allowing user-supplied system call operations

// * * * * * * * * * * * * * * * * * * * * * * * * * * * * * * * * * * * * * //
Create time

Create mesh for time = 703


SIMPLE: Convergence criteria found
        p: tolerance 0.001
        U: tolerance 0.0001
        "(k|epsilon|omega|f|v2)": tolerance 0.001

Reading field p

Reading field U

Reading/calculating face flux field phi

Selecting incompressible transport model Newtonian
Selecting turbulence model type RAS
Selecting RAS turbulence model kEpsilon
RAS
{
    model           kEpsilon;
    turbulence      on;
    printCoeffs     on;
    Cmu             0.09;
    C1              1.44;
    C2              1.92;
    C3              0;
    sigmak          1;
    sigmaEps        1.3;
}

No MRF models present

No finite volume options present

Starting time loop

forces force:
    Not including porosity effects
surfaceFieldValue pInlet:
    total faces  = 448
    total area   = 0.044942488


--> FOAM Warning : 
    From function void* Foam::dlOpen(const Foam::fileName&, bool)
    in file POSIX.C at line 1251
    dlopen error : fieldFunctionObjects.so: cannot open shared object file: No such file or directory
--> FOAM Warning : 
    From function bool Foam::dlLibraryTable::open(const Foam::fileName&, bool)
    in file db/dynamicLibrary/dlLibraryTable/dlLibraryTable.C at line 106
    could not load "fieldFunctionObjects.so"
--> FOAM Warning : 
    From function bool Foam::dlLibraryTable::open(const Foam::dictionary&, const Foam::word&, const TablePtr&) [with TablePtr = Foam::HashTable<Foam::autoPtr<Foam::functionObject> (*)(const Foam::word&, const Foam::Time&, const Foam::dictionary&), Foam::word, Foam::string::hash>*]
    in file lnInclude/dlLibraryTableTemplates.C at line 62
    Could not open library "fieldFunctionObjects.so"

forces force write:
    sum of forces:
        pressure : (-6.6372926e-07 0.19773711 1.5607224e-07)
        viscous  : (-3.4842393e-07 0.0023662527 -9.1539764e-08)
        porous   : (0 0 0)
    sum of moments:
        pressure : (-2.8561187e-09 1.4338467e-08 -7.3982262e-08)
        viscous  : (-3.7333686e-09 1.8957036e-09 -1.7633483e-10)
        porous   : (0 0 0)

surfaceFieldValue pInlet write:
    average(inlet) of p = 13.622472

yPlus yPlus write:
    writing object yPlus
    patch outerWalls y+ : min = 0.82688943, max = 5.6181757, average = 4.3097166
    patch splitterFront y+ : min = 3.771014, max = 8.4556708, average = 4.9330327
    patch splitterRight y+ : min = 3.9404724, max = 7.786995, average = 5.3673046
    patch splitterRear y+ : min = 0.24441259, max = 91.783534, average = 23.213777
    patch splitterLeft y+ : min = 3.9402926, max = 7.7870488, average = 5.3675864
    patch splitterBottom y+ : min = 48.762227, max = 216.59505, average = 91.526864
    patch splitterTop y+ : min = 48.762303, max = 216.59501, average = 91.527276

Time = 704

smoothSolver:  Solving for Ux, Initial residual = 0.00082222988, Final residual = 1.3632347e-05, No Iterations 2
smoothSolver:  Solving for Uy, Initial residual = 0.00027237694, Final residual = 4.8790991e-06, No Iterations 2
smoothSolver:  Solving for Uz, Initial residual = 0.00060160053, Final residual = 9.2862679e-06, No Iterations 2
GAMG:  Solving for p, Initial residual = 0.018625644, Final residual = 0.00017181115, No Iterations 3
time step continuity errors : sum local = 0.0022811616, global = 9.3368618e-06, cumulative = 9.3368618e-06
smoothSolver:  Solving for epsilon, Initial residual = 0.00047737273, Final residual = 1.4500423e-05, No Iterations 1
smoothSolver:  Solving for k, Initial residual = 0.00037500737, Final residual = 2.9081793e-05, No Iterations 1
ExecutionTime = 6.13 s  ClockTime = 6 s

forces force write:
    sum of forces:
        pressure : (-1.2500837e-07 0.19772365 3.7221036e-07)
        viscous  : (-1.6905937e-07 0.0023654899 9.7709902e-08)
        porous   : (0 0 0)
    sum of moments:
        pressure : (5.9033711e-09 1.6577717e-08 -1.0294941e-07)
        viscous  : (2.5788777e-09 6.321703e-10 -2.8845727e-09)
        porous   : (0 0 0)

surfaceFieldValue pInlet write:
    average(inlet) of p = 13.614429

Time = 705

smoothSolver:  Solving for Ux, Initial residual = 0.00082554021, Final residual = 1.3624288e-05, No Iterations 2
smoothSolver:  Solving for Uy, Initial residual = 0.00027336019, Final residual = 4.880269e-06, No Iterations 2
smoothSolver:  Solving for Uz, Initial residual = 0.00060109579, Final residual = 9.2764333e-06, No Iterations 2
GAMG:  Solving for p, Initial residual = 0.018267139, Final residual = 0.00017571629, No Iterations 3
time step continuity errors : sum local = 0.0023248431, global = 1.2105921e-05, cumulative = 2.1442783e-05
smoothSolver:  Solving for epsilon, Initial residual = 0.00048603035, Final residual = 1.478825e-05, No Iterations 1
smoothSolver:  Solving for k, Initial residual = 0.00037532973, Final residual = 2.9115775e-05, No Iterations 1
ExecutionTime = 8.8 s  ClockTime = 9 s

forces force write:
    sum of forces:
        pressure : (-2.6862299e-07 0.19771381 2.981915e-07)
        viscous  : (-1.3158629e-07 0.002366166 1.654102e-07)
        porous   : (0 0 0)
    sum of moments:
        pressure : (5.7862098e-09 1.5155838e-08 -1.0003755e-07)
        viscous  : (6.240949e-09 -7.3841662e-10 -7.2628229e-10)
        porous   : (0 0 0)

surfaceFieldValue pInlet write:
    average(inlet) of p = 13.618016

Time = 706

smoothSolver:  Solving for Ux, Initial residual = 0.00082194575, Final residual = 1.3594794e-05, No Iterations 2
smoothSolver:  Solving for Uy, Initial residual = 0.00027489426, Final residual = 4.8883837e-06, No Iterations 2
smoothSolver:  Solving for Uz, Initial residual = 0.00060100767, Final residual = 9.2737976e-06, No Iterations 2
GAMG:  Solving for p, Initial residual = 0.018599408, Final residual = 0.00016431511, No Iterations 3
time step continuity errors : sum local = 0.0021680474, global = 1.4213811e-05, cumulative = 3.5656594e-05
smoothSolver:  Solving for epsilon, Initial residual = 0.00049656372, Final residual = 1.5019983e-05, No Iterations 1
smoothSolver:  Solving for k, Initial residual = 0.00037773934, Final residual = 2.9163211e-05, No Iterations 1
ExecutionTime = 11.44 s  ClockTime = 12 s

forces force write:
    sum of forces:
        pressure : (-8.9620095e-07 0.19770063 4.8563935e-09)
        viscous  : (-5.6136259e-08 0.0023656474 5.206797e-09)
        porous   : (0 0 0)
    sum of moments:
        pressure : (-6.281557e-09 1.6663964e-08 -6.5983743e-08)
        viscous  : (6.6310453e-10 1.7793712e-10 1.1054821e-09)
        porous   : (0 0 0)

surfaceFieldValue pInlet write:
    average(inlet) of p = 13.631661

Time = 707

smoothSolver:  Solving for Ux, Initial residual = 0.00081037452, Final residual = 1.3565722e-05, No Iterations 2
smoothSolver:  Solving for Uy, Initial residual = 0.00027131871, Final residual = 4.8613644e-06, No Iterations 2
smoothSolver:  Solving for Uz, Initial residual = 0.0005835659, Final residual = 9.2330331e-06, No Iterations 2
GAMG:  Solving for p, Initial residual = 0.018727535, Final residual = 0.00014473963, No Iterations 3
time step continuity errors : sum local = 0.0019076631, global = 1.4142064e-05, cumulative = 4.9798658e-05
smoothSolver:  Solving for epsilon, Initial residual = 0.00051545833, Final residual = 1.4676589e-05, No Iterations 1
smoothSolver:  Solving for k, Initial residual = 0.00037547223, Final residual = 2.8948922e-05, No Iterations 1
ExecutionTime = 14.1 s  ClockTime = 14 s

forces force write:
    sum of forces:
        pressure : (-1.0707915e-06 0.19768636 2.6582022e-07)
        viscous  : (-1.2461728e-07 0.0023657952 -7.896675e-08)
        porous   : (0 0 0)
    sum of moments:
        pressure : (-1.1100469e-09 1.9281016e-08 -4.8525065e-08)
        viscous  : (-3.9428964e-09 5.2489564e-10 -4.4512326e-10)
        porous   : (0 0 0)

surfaceFieldValue pInlet write:
    average(inlet) of p = 13.653612

Time = 708

smoothSolver:  Solving for Ux, Initial residual = 0.00081066514, Final residual = 1.3560777e-05, No Iterations 2
smoothSolver:  Solving for Uy, Initial residual = 0.00027015599, Final residual = 4.8546601e-06, No Iterations 2
smoothSolver:  Solving for Uz, Initial residual = 0.00058496188, Final residual = 9.2294081e-06, No Iterations 2
GAMG:  Solving for p, Initial residual = 0.019083334, Final residual = 0.00013114126, No Iterations 3
time step continuity errors : sum local = 0.0017281163, global = 1.3841388e-05, cumulative = 6.3640046e-05
smoothSolver:  Solving for epsilon, Initial residual = 0.00052765111, Final residual = 1.4406748e-05, No Iterations 1
smoothSolver:  Solving for k, Initial residual = 0.00037486432, Final residual = 2.891053e-05, No Iterations 1
ExecutionTime = 16.74 s  ClockTime = 17 s

forces force write:
    sum of forces:
        pressure : (-1.2677149e-06 0.19767246 4.8014062e-07)
        viscous  : (-2.7437516e-07 0.0023658061 8.470012e-08)
        porous   : (0 0 0)
    sum of moments:
        pressure : (1.0025499e-08 1.5713721e-08 -3.2625513e-08)
        viscous  : (2.65088e-09 8.2108741e-10 2.3430185e-09)
        porous   : (0 0 0)

surfaceFieldValue pInlet write:
    average(inlet) of p = 13.679187

Time = 709

smoothSolver:  Solving for Ux, Initial residual = 0.00081256237, Final residual = 1.3555728e-05, No Iterations 2
smoothSolver:  Solving for Uy, Initial residual = 0.00027030409, Final residual = 4.8488451e-06, No Iterations 2
smoothSolver:  Solving for Uz, Initial residual = 0.00058550451, Final residual = 9.2266304e-06, No Iterations 2
GAMG:  Solving for p, Initial residual = 0.019685719, Final residual = 0.00013119744, No Iterations 3
time step continuity errors : sum local = 0.0017301723, global = 1.4462135e-05, cumulative = 7.8102181e-05
smoothSolver:  Solving for epsilon, Initial residual = 0.00053552113, Final residual = 1.4144283e-05, No Iterations 1
smoothSolver:  Solving for k, Initial residual = 0.00037236708, Final residual = 2.8885347e-05, No Iterations 1
ExecutionTime = 19.37 s  ClockTime = 20 s

forces force write:
    sum of forces:
        pressure : (-3.1150987e-07 0.19766209 2.7577252e-07)
        viscous  : (-2.6196928e-07 0.0023661425 1.0363231e-07)
        porous   : (0 0 0)
    sum of moments:
        pressure : (1.5645608e-09 1.6663766e-08 -8.0499884e-08)
        viscous  : (3.8006911e-09 -8.6892897e-11 -2.2998743e-09)
        porous   : (0 0 0)

surfaceFieldValue pInlet write:
    average(inlet) of p = 13.703116

Time = 710

smoothSolver:  Solving for Ux, Initial residual = 0.00081174733, Final residual = 1.3541217e-05, No Iterations 2
smoothSolver:  Solving for Uy, Initial residual = 0.00026986735, Final residual = 4.844123e-06, No Iterations 2
smoothSolver:  Solving for Uz, Initial residual = 0.0005840233, Final residual = 9.2199603e-06, No Iterations 2
GAMG:  Solving for p, Initial residual = 0.020589143, Final residual = 0.00014880454, No Iterations 3
time step continuity errors : sum local = 0.0019648622, global = 1.3420506e-05, cumulative = 9.1522687e-05
smoothSolver:  Solving for epsilon, Initial residual = 0.00051378524, Final residual = 1.3875621e-05, No Iterations 1
smoothSolver:  Solving for k, Initial residual = 0.000368251, Final residual = 2.8717386e-05, No Iterations 1
ExecutionTime = 21.99 s  ClockTime = 22 s

forces force write:
    sum of forces:
        pressure : (-6.3257722e-07 0.1976478 1.7330669e-07)
        viscous  : (-3.7813282e-07 0.0023653876 7.0111746e-08)
        porous   : (0 0 0)
    sum of moments:
        pressure : (-3.8430539e-09 1.9592089e-08 -5.540184e-08)
        viscous  : (1.5509028e-09 -1.2240994e-09 3.2980764e-09)
        porous   : (0 0 0)

surfaceFieldValue pInlet write:
    average(inlet) of p = 13.721496

Time = 711

smoothSolver:  Solving for Ux, Initial residual = 0.00081335413, Final residual = 1.3526898e-05, No Iterations 2
smoothSolver:  Solving for Uy, Initial residual = 0.00027006381, Final residual = 4.8403192e-06, No Iterations 2
smoothSolver:  Solving for Uz, Initial residual = 0.00058812337, Final residual = 9.209693e-06, No Iterations 2
GAMG:  Solving for p, Initial residual = 0.020512483, Final residual = 0.00017158577, No Iterations 3
time step continuity errors : sum local = 0.0022681464, global = 1.0567574e-05, cumulative = 0.00010209026
smoothSolver:  Solving for epsilon, Initial residual = 0.00049295399, Final residual = 1.3725447e-05, No Iterations 1
smoothSolver:  Solving for k, Initial residual = 0.00036771319, Final residual = 2.8654705e-05, No Iterations 1
ExecutionTime = 24.61 s  ClockTime = 25 s

forces force write:
    sum of forces:
        pressure : (-8.5936117e-07 0.19763876 2.9924457e-07)
        viscous  : (-1.5365482e-07 0.0023661544 -5.1676015e-08)
        porous   : (0 0 0)
    sum of moments:
        pressure : (3.8674716e-09 1.5146373e-08 -4.8194859e-08)
        viscous  : (-1.7663295e-09 1.2094622e-09 -1.2099084e-10)
        porous   : (0 0 0)

surfaceFieldValue pInlet write:
    average(inlet) of p = 13.732651

Time = 712

smoothSolver:  Solving for Ux, Initial residual = 0.00081614967, Final residual = 1.3506441e-05, No Iterations 2
smoothSolver:  Solving for Uy, Initial residual = 0.0002704386, Final residual = 4.8386608e-06, No Iterations 2
smoothSolver:  Solving for Uz, Initial residual = 0.00059239539, Final residual = 9.1972083e-06, No Iterations 2
GAMG:  Solving for p, Initial residual = 0.019985251, Final residual = 0.00019396698, No Iterations 3
time step continuity errors : sum local = 0.002565651, global = 6.6579814e-06, cumulative = 0.00010874824
smoothSolver:  Solving for epsilon, Initial residual = 0.00048420033, Final residual = 1.3719006e-05, No Iterations 1
smoothSolver:  Solving for k, Initial residual = 0.00036842105, Final residual = 2.8640085e-05, No Iterations 1
ExecutionTime = 27.24 s  ClockTime = 27 s

forces force write:
    sum of forces:
        pressure : (-1.3878334e-06 0.1976292 2.8531355e-07)
        viscous  : (1.8176168e-08 0.0023657297 9.1567778e-08)
        porous   : (0 0 0)
    sum of moments:
        pressure : (5.8961472e-09 1.3345601e-08 -2.4496122e-08)
        viscous  : (2.4258435e-09 7.3132294e-10 1.1098306e-09)
        porous   : (0 0 0)

surfaceFieldValue pInlet write:
    average(inlet) of p = 13.737143

Time = 713

smoothSolver:  Solving for Ux, Initial residual = 0.00080990682, Final residual = 1.347167e-05, No Iterations 2
smoothSolver:  Solving for Uy, Initial residual = 0.00027009972, Final residual = 4.8344126e-06, No Iterations 2
smoothSolver:  Solving for Uz, Initial residual = 0.00059368685, Final residual = 9.1751531e-06, No Iterations 2
GAMG:  Solving for p, Initial residual = 0.019153754, Final residual = 0.00011887628, No Iterations 4
time step continuity errors : sum local = 0.0015730269, global = 7.1992421e-07, cumulative = 0.00010946817
smoothSolver:  Solving for epsilon, Initial residual = 0.00048017262, Final residual = 1.3831797e-05, No Iterations 1
smoothSolver:  Solving for k, Initial residual = 0.00036831386, Final residual = 2.8435287e-05, No Iterations 1
ExecutionTime = 29.95 s  ClockTime = 30 s

forces force write:
    sum of forces:
        pressure : (-1.2689898e-06 0.19761615 2.1041237e-07)
        viscous  : (-7.4325924e-09 0.0023656316 1.4974789e-07)
        porous   : (0 0 0)
    sum of moments:
        pressure : (2.8547229e-09 1.6847719e-08 -4.706912e-08)
        viscous  : (4.8887537e-09 -1.4737092e-09 -8.4189251e-10)
        porous   : (0 0 0)

surfaceFieldValue pInlet write:
    average(inlet) of p = 13.732081

Time = 714

smoothSolver:  Solving for Ux, Initial residual = 0.00081075735, Final residual = 1.3474742e-05, No Iterations 2
smoothSolver:  Solving for Uy, Initial residual = 0.00027358483, Final residual = 4.8546005e-06, No Iterations 2
smoothSolver:  Solving for Uz, Initial residual = 0.00059623667, Final residual = 9.1907416e-06, No Iterations 2
GAMG:  Solving for p, Initial residual = 0.018198676, Final residual = 0.00010670078, No Iterations 4
time step continuity errors : sum local = 0.0014113431, global = -2.5298864e-06, cumulative = 0.00010693828
smoothSolver:  Solving for epsilon, Initial residual = 0.000482783, Final residual = 1.4321926e-05, No Iterations 1
smoothSolver:  Solving for k, Initial residual = 0.00037186702, Final residual = 2.8463651e-05, No Iterations 1
ExecutionTime = 32.67 s  ClockTime = 33 s

forces force write:
    sum of forces:
        pressure : (-1.4067043e-06 0.19760636 9.8752015e-09)
        viscous  : (-8.8923662e-09 0.0023654038 3.0100115e-08)
        porous   : (0 0 0)
    sum of moments:
        pressure : (-1.9946478e-09 1.4136404e-08 -3.8809129e-08)
        viscous  : (1.9819897e-09 6.8129121e-10 8.262629e-10)
        porous   : (0 0 0)

surfaceFieldValue pInlet write:
    average(inlet) of p = 13.726653

Time = 715

smoothSolver:  Solving for Ux, Initial residual = 0.00080221836, Final residual = 1.3419702e-05, No Iterations 2
smoothSolver:  Solving for Uy, Initial residual = 0.00026953952, Final residual = 4.8284097e-06, No Iterations 2
smoothSolver:  Solving for Uz, Initial residual = 0.00058714182, Final residual = 9.1221333e-06, No Iterations 2
GAMG:  Solving for p, Initial residual = 0.017450217, Final residual = 0.00014990258, No Iterations 3
time step continuity errors : sum local = 0.0019849055, global = -5.300969e-06, cumulative = 0.00010163731
smoothSolver:  Solving for epsilon, Initial residual = 0.00050719582, Final residual = 1.4120641e-05, No Iterations 1
smoothSolver:  Solving for k, Initial residual = 0.00037211074, Final residual = 2.8207487e-05, No Iterations 1
ExecutionTime = 35.29 s  ClockTime = 36 s

forces force write:
    sum of forces:
        pressure : (-1.3447144e-07 0.19760259 1.0949218e-07)
        viscous  : (-3.0708354e-07 0.0023656577 -4.3061741e-08)
        porous   : (0 0 0)
    sum of moments:
        pressure : (-2.3133509e-09 1.3591695e-08 -9.4058321e-08)
        viscous  : (-2.7852668e-09 1.3535039e-09 -3.1648558e-09)
        porous   : (0 0 0)

surfaceFieldValue pInlet write:
    average(inlet) of p = 13.721677

Time = 716

smoothSolver:  Solving for Ux, Initial residual = 0.00079311857, Final residual = 1.3402411e-05, No Iterations 2
smoothSolver:  Solving for Uy, Initial residual = 0.00026927782, Final residual = 4.829335e-06, No Iterations 2
smoothSolver:  Solving for Uz, Initial residual = 0.00057752434, Final residual = 9.1073314e-06, No Iterations 2
GAMG:  Solving for p, Initial residual = 0.016995992, Final residual = 0.00012927124, No Iterations 3
time step continuity errors : sum local = 0.0017137373, global = -7.3822697e-06, cumulative = 9.4255041e-05
smoothSolver:  Solving for epsilon, Initial residual = 0.0005219001, Final residual = 1.4239781e-05, No Iterations 1
smoothSolver:  Solving for k, Initial residual = 0.00036774796, Final residual = 2.8201349e-05, No Iterations 1
ExecutionTime = 37.92 s  ClockTime = 38 s

forces force write:
    sum of forces:
        pressure : (-3.9941741e-07 0.19759595 3.8574573e-07)
        viscous  : (-1.5099957e-07 0.002365285 4.9172297e-08)
        porous   : (0 0 0)
    sum of moments:
        pressure : (7.1510314e-09 1.5748749e-08 -7.5777289e-08)
        viscous  : (1.5275937e-09 7.5554328e-10 5.7315476e-10)
        porous   : (0 0 0)

surfaceFieldValue pInlet write:
    average(inlet) of p = 13.717616

Time = 717

smoothSolver:  Solving for Ux, Initial residual = 0.00078687326, Final residual = 1.3373642e-05, No Iterations 2
smoothSolver:  Solving for Uy, Initial residual = 0.00026795009, Final residual = 4.8201827e-06, No Iterations 2
smoothSolver:  Solving for Uz, Initial residual = 0.00056982015, Final residual = 9.0793074e-06, No Iterations 2
GAMG:  Solving for p, Initial residual = 0.017268995, Final residual = 0.00012937323, No Iterations 3
time step continuity errors : sum local = 0.0017197775, global = -8.0813346e-06, cumulative = 8.6173707e-05
smoothSolver:  Solving for epsilon, Initial residual = 0.00052546489, Final residual = 1.4064996e-05, No Iterations 1
smoothSolver:  Solving for k, Initial residual = 0.00036553167, Final residual = 2.8134026e-05, No Iterations 1
ExecutionTime = 40.57 s  ClockTime = 41 s

forces force write:
    sum of forces:
        pressure : (-4.5431686e-07 0.19759261 2.3978361e-07)
        viscous  : (1.5192651e-08 0.0023658649 1.1081106e-07)
        porous   : (0 0 0)
    sum of moments:
        pressure : (5.9643706e-09 1.4948981e-08 -8.3382097e-08)
        viscous  : (5.2274003e-09 -2.2832032e-10 -1.8562015e-09)
        porous   : (0 0 0)

surfaceFieldValue pInlet write:
    average(inlet) of p = 13.71464

Time = 718

smoothSolver:  Solving for Ux, Initial residual = 0.00078293442, Final residual = 1.3355243e-05, No Iterations 2
smoothSolver:  Solving for Uy, Initial residual = 0.00026761644, Final residual = 4.8174024e-06, No Iterations 2
smoothSolver:  Solving for Uz, Initial residual = 0.00056429844, Final residual = 9.0651166e-06, No Iterations 2
GAMG:  Solving for p, Initial residual = 0.017793081, Final residual = 0.00014354733, No Iterations 3
time step continuity errors : sum local = 0.0019132234, global = -7.4098456e-06, cumulative = 7.8763861e-05
smoothSolver:  Solving for epsilon, Initial residual = 0.00051852232, Final residual = 1.3777027e-05, No Iterations 1
smoothSolver:  Solving for k, Initial residual = 0.00035976805, Final residual = 2.808178e-05, No Iterations 1
ExecutionTime = 43.27 s  ClockTime = 44 s

forces force write:
    sum of forces:
        pressure : (-7.6055336e-07 0.19758776 -5.1629538e-08)
        viscous  : (-1.9144355e-07 0.0023655192 1.3950465e-08)
        porous   : (0 0 0)
    sum of moments:
        pressure : (-6.5659736e-09 1.5566008e-08 -7.0491056e-08)
        viscous  : (7.6740797e-10 -2.3225678e-11 2.8293012e-09)
        porous   : (0 0 0)

surfaceFieldValue pInlet write:
    average(inlet) of p = 13.714273

Time = 719

smoothSolver:  Solving for Ux, Initial residual = 0.0007811464, Final residual = 1.3331841e-05, No Iterations 2
smoothSolver:  Solving for Uy, Initial residual = 0.0002666733, Final residual = 4.8108208e-06, No Iterations 2
smoothSolver:  Solving for Uz, Initial residual = 0.00056210823, Final residual = 9.0484648e-06, No Iterations 2
GAMG:  Solving for p, Initial residual = 0.018292695, Final residual = 0.00015733674, No Iterations 3
time step continuity errors : sum local = 0.0021027577, global = -5.1497226e-06, cumulative = 7.3614139e-05
smoothSolver:  Solving for epsilon, Initial residual = 0.00050240792, Final residual = 1.3506249e-05, No Iterations 1
smoothSolver:  Solving for k, Initial residual = 0.00035416491, Final residual = 2.8016062e-05, No Iterations 1
ExecutionTime = 45.89 s  ClockTime = 46 s

forces force write:
    sum of forces:
        pressure : (-5.3037181e-07 0.19757978 1.7199296e-07)
        viscous  : (-1.1464798e-07 0.0023652891 -8.0260845e-08)
        porous   : (0 0 0)
    sum of moments:
        pressure : (-1.7840442e-09 1.7591036e-08 -8.6308315e-08)
        viscous  : (-3.7094222e-09 8.1359153e-10 -2.1689163e-09)
        porous   : (0 0 0)

surfaceFieldValue pInlet write:
    average(inlet) of p = 13.715442

Time = 720

smoothSolver:  Solving for Ux, Initial residual = 0.00078512824, Final residual = 1.331758e-05, No Iterations 2
smoothSolver:  Solving for Uy, Initial residual = 0.00026608967, Final residual = 4.8044657e-06, No Iterations 2
smoothSolver:  Solving for Uz, Initial residual = 0.00056449173, Final residual = 9.040796e-06, No Iterations 2
GAMG:  Solving for p, Initial residual = 0.018536462, Final residual = 0.00016250521, No Iterations 3
time step continuity errors : sum local = 0.0021766538, global = -1.8495905e-06, cumulative = 7.1764548e-05
smoothSolver:  Solving for epsilon, Initial residual = 0.00047894798, Final residual = 1.3307665e-05, No Iterations 1
smoothSolver:  Solving for k, Initial residual = 0.00035125833, Final residual = 2.7919615e-05, No Iterations 1
ExecutionTime = 48.56 s  ClockTime = 49 s

forces force write:
    sum of forces:
        pressure : (-6.3284721e-07 0.19757125 4.6331738e-07)
        viscous  : (-2.6950753e-07 0.0023653366 1.2405928e-07)
        porous   : (0 0 0)
    sum of moments:
        pressure : (1.014124e-08 1.4298824e-08 -7.2164304e-08)
        viscous  : (3.4473775e-09 1.0064241e-09 6.38952e-10)
        porous   : (0 0 0)

surfaceFieldValue pInlet write:
    average(inlet) of p = 13.715384

Time = 721

smoothSolver:  Solving for Ux, Initial residual = 0.00079471939, Final residual = 1.331634e-05, No Iterations 2
smoothSolver:  Solving for Uy, Initial residual = 0.00026626346, Final residual = 4.7980613e-06, No Iterations 2
smoothSolver:  Solving for Uz, Initial residual = 0.00056990993, Final residual = 9.0378694e-06, No Iterations 2
GAMG:  Solving for p, Initial residual = 0.018551751, Final residual = 0.00015978523, No Iterations 3
time step continuity errors : sum local = 0.0021427164, global = 2.0538303e-06, cumulative = 7.3818378e-05
smoothSolver:  Solving for epsilon, Initial residual = 0.00045236906, Final residual = 1.3008449e-05, No Iterations 1
smoothSolver:  Solving for k, Initial residual = 0.00035102367, Final residual = 2.7807774e-05, No Iterations 1
ExecutionTime = 51.27 s  ClockTime = 52 s

forces force write:
    sum of forces:
        pressure : (-7.0245326e-07 0.19756381 3.3717492e-07)
        viscous  : (-6.0833271e-08 0.0023658538 3.9643707e-08)
        porous   : (0 0 0)
    sum of moments:
        pressure : (3.415049e-09 1.5991285e-08 -7.3488464e-08)
        viscous  : (2.4137511e-09 6.0189965e-10 -1.541225e-09)
        porous   : (0 0 0)

surfaceFieldValue pInlet write:
    average(inlet) of p = 13.710691

Time = 722

smoothSolver:  Solving for Ux, Initial residual = 0.00080834988, Final residual = 1.3332632e-05, No Iterations 2
smoothSolver:  Solving for Uy, Initial residual = 0.00026989807, Final residual = 4.8115658e-06, No Iterations 2
smoothSolver:  Solving for Uz, Initial residual = 0.00058069696, Final residual = 9.0478954e-06, No Iterations 2
GAMG:  Solving for p, Initial residual = 0.018361229, Final residual = 0.00015103751, No Iterations 3
time step continuity errors : sum local = 0.0020234875, global = 5.8366831e-06, cumulative = 7.9655061e-05
smoothSolver:  Solving for epsilon, Initial residual = 0.00044902019, Final residual = 1.3056155e-05, No Iterations 1
smoothSolver:  Solving for k, Initial residual = 0.00035482421, Final residual = 2.7968541e-05, No Iterations 1
ExecutionTime = 54.09 s  ClockTime = 54 s

forces force write:
    sum of forces:
        pressure : (-1.6467607e-06 0.19754984 3.1511429e-07)
        viscous  : (4.5393553e-08 0.0023651956 2.4249556e-08)
        porous   : (0 0 0)
    sum of moments:
        pressure : (-1.8529135e-09 1.9283768e-08 -2.8343779e-08)
        viscous  : (3.4421284e-10 2.5036716e-10 1.692965e-09)
        porous   : (0 0 0)

surfaceFieldValue pInlet write:
    average(inlet) of p = 13.700818

Time = 723

smoothSolver:  Solving for Ux, Initial residual = 0.0008056523, Final residual = 1.3300594e-05, No Iterations 2
smoothSolver:  Solving for Uy, Initial residual = 0.00026761867, Final residual = 4.7862819e-06, No Iterations 2
smoothSolver:  Solving for Uz, Initial residual = 0.00058062859, Final residual = 9.0291164e-06, No Iterations 2
GAMG:  Solving for p, Initial residual = 0.017903604, Final residual = 0.00014362603, No Iterations 3
time step continuity errors : sum local = 0.0019201422, global = 9.3800942e-06, cumulative = 8.9035156e-05
smoothSolver:  Solving for epsilon, Initial residual = 0.00045146598, Final residual = 1.2967345e-05, No Iterations 1
smoothSolver:  Solving for k, Initial residual = 0.00035717345, Final residual = 2.7827238e-05, No Iterations 1
ExecutionTime = 56.83 s  ClockTime = 57 s

forces force write:
    sum of forces:
        pressure : (-1.27097e-06 0.19753886 5.4507892e-07)
        viscous  : (-2.3961554e-07 0.0023657184 1.3283873e-08)
        porous   : (0 0 0)
    sum of moments:
        pressure : (9.0182138e-09 1.7456937e-08 -4.3067224e-08)
        viscous  : (1.3035129e-10 2.4475455e-10 1.0412204e-11)
        porous   : (0 0 0)

surfaceFieldValue pInlet write:
    average(inlet) of p = 13.687261

Time = 724

smoothSolver:  Solving for Ux, Initial residual = 0.0008071168, Final residual = 1.3281845e-05, No Iterations 2
smoothSolver:  Solving for Uy, Initial residual = 0.00026819573, Final residual = 4.7869515e-06, No Iterations 2
smoothSolver:  Solving for Uz, Initial residual = 0.00058632041, Final residual = 9.0248085e-06, No Iterations 2
GAMG:  Solving for p, Initial residual = 0.017833546, Final residual = 0.00013254634, No Iterations 3
time step continuity errors : sum local = 0.0017644725, global = 1.1740886e-05, cumulative = 0.00010077604
smoothSolver:  Solving for epsilon, Initial residual = 0.00047448864, Final residual = 1.3451691e-05, No Iterations 1
smoothSolver:  Solving for k, Initial residual = 0.00036349382, Final residual = 2.795531e-05, No Iterations 1
ExecutionTime = 59.69 s  ClockTime = 60 s

forces force write:
    sum of forces:
        pressure : (-8.1849686e-07 0.19752566 5.5945827e-07)
        viscous  : (-1.7314824e-07 0.0023651908 3.1321248e-08)
        porous   : (0 0 0)
    sum of moments:
        pressure : (1.1662515e-08 1.681962e-08 -5.157599e-08)
        viscous  : (1.2440333e-09 1.299375e-09 -2.7915012e-10)
        porous   : (0 0 0)

surfaceFieldValue pInlet write:
    average(inlet) of p = 13.674665

Time = 725

smoothSolver:  Solving for Ux, Initial residual = 0.00080868854, Final residual = 1.3261128e-05, No Iterations 2
smoothSolver:  Solving for Uy, Initial residual = 0.00026898071, Final residual = 4.7862819e-06, No Iterations 2
smoothSolver:  Solving for Uz, Initial residual = 0.00058960553, Final residual = 9.0096075e-06, No Iterations 2
GAMG:  Solving for p, Initial residual = 0.018048183, Final residual = 0.00013317845, No Iterations 3
time step continuity errors : sum local = 0.0017650405, global = 1.2312592e-05, cumulative = 0.00011308863
smoothSolver:  Solving for epsilon, Initial residual = 0.00050511061, Final residual = 1.3939991e-05, No Iterations 1
smoothSolver:  Solving for k, Initial residual = 0.00036903299, Final residual = 2.7966767e-05, No Iterations 1
ExecutionTime = 62.59 s  ClockTime = 63 s

forces force write:
    sum of forces:
        pressure : (-3.4347613e-08 0.19750976 4.354322e-07)
        viscous  : (-1.9782276e-07 0.0023649951 9.0140447e-08)
        porous   : (0 0 0)
    sum of moments:
        pressure : (5.462395e-09 1.902446e-08 -8.601743e-08)
        viscous  : (2.8405525e-09 -6.2274307e-10 -2.8966928e-09)
        porous   : (0 0 0)

surfaceFieldValue pInlet write:
    average(inlet) of p = 13.66691

Time = 726

smoothSolver:  Solving for Ux, Initial residual = 0.00079980742, Final residual = 1.3228344e-05, No Iterations 2
smoothSolver:  Solving for Uy, Initial residual = 0.00026653557, Final residual = 4.7697076e-06, No Iterations 2
smoothSolver:  Solving for Uz, Initial residual = 0.00058110361, Final residual = 8.9682193e-06, No Iterations 2
GAMG:  Solving for p, Initial residual = 0.018725276, Final residual = 0.00014628109, No Iterations 3
time step continuity errors : sum local = 0.0019323019, global = 1.145089e-05, cumulative = 0.00012453952
smoothSolver:  Solving for epsilon, Initial residual = 0.00053707526, Final residual = 1.4212458e-05, No Iterations 1
smoothSolver:  Solving for k, Initial residual = 0.00036976951, Final residual = 2.8038516e-05, No Iterations 1
ExecutionTime = 65.41 s  ClockTime = 66 s

forces force write:
    sum of forces:
        pressure : (-7.1102994e-07 0.19749632 1.798603e-07)
        viscous  : (-5.4699617e-08 0.0023650914 9.9769092e-08)
        porous   : (0 0 0)
    sum of moments:
        pressure : (-9.6821946e-10 1.6153394e-08 -5.1080936e-08)
        viscous  : (3.294161e-09 4.0007202e-10 2.7807835e-09)
        porous   : (0 0 0)

surfaceFieldValue pInlet write:
    average(inlet) of p = 13.665156

Time = 727

smoothSolver:  Solving for Ux, Initial residual = 0.00079674211, Final residual = 1.3211197e-05, No Iterations 2
smoothSolver:  Solving for Uy, Initial residual = 0.00026599609, Final residual = 4.7661079e-06, No Iterations 2
smoothSolver:  Solving for Uz, Initial residual = 0.00057908108, Final residual = 8.9556972e-06, No Iterations 2
GAMG:  Solving for p, Initial residual = 0.019122424, Final residual = 0.00016816957, No Iterations 3
time step continuity errors : sum local = 0.0022169859, global = 9.8282123e-06, cumulative = 0.00013436774
smoothSolver:  Solving for epsilon, Initial residual = 0.00055791744, Final residual = 1.4886487e-05, No Iterations 1
smoothSolver:  Solving for k, Initial residual = 0.0003703262, Final residual = 2.8249188e-05, No Iterations 1
ExecutionTime = 68.32 s  ClockTime = 69 s

forces force write:
    sum of forces:
        pressure : (-1.4681151e-07 0.1974876 1.8366316e-07)
        viscous  : (-1.4675502e-07 0.002365633 -8.4903166e-08)
        porous   : (0 0 0)
    sum of moments:
        pressure : (-6.8346533e-10 1.619897e-08 -7.6764613e-08)
        viscous  : (-2.7889622e-09 1.3671751e-09 -9.7360992e-10)
        porous   : (0 0 0)

surfaceFieldValue pInlet write:
    average(inlet) of p = 13.669357

Time = 728

smoothSolver:  Solving for Ux, Initial residual = 0.00079959193, Final residual = 1.3202944e-05, No Iterations 2
smoothSolver:  Solving for Uy, Initial residual = 0.00026543885, Final residual = 4.7596192e-06, No Iterations 2
smoothSolver:  Solving for Uz, Initial residual = 0.00058729576, Final residual = 8.95703e-06, No Iterations 2
GAMG:  Solving for p, Initial residual = 0.019956059, Final residual = 0.00019126921, No Iterations 3
time step continuity errors : sum local = 0.0025196184, global = 6.9064246e-06, cumulative = 0.00014127416
smoothSolver:  Solving for epsilon, Initial residual = 0.00055417053, Final residual = 1.492896e-05, No Iterations 1
smoothSolver:  Solving for k, Initial residual = 0.0003710555, Final residual = 2.8316593e-05, No Iterations 1
ExecutionTime = 71.05 s  ClockTime = 71 s

forces force write:
    sum of forces:
        pressure : (-1.7941533e-07 0.19747548 4.0455658e-07)
        viscous  : (-2.7598261e-07 0.0023650325 3.9067092e-08)
        porous   : (0 0 0)
    sum of moments:
        pressure : (6.4866603e-09 1.6088699e-08 -7.4602489e-08)
        viscous  : (6.6620704e-10 1.3354346e-09 1.0233574e-09)
        porous   : (0 0 0)

surfaceFieldValue pInlet write:
    average(inlet) of p = 13.675672

Time = 729

smoothSolver:  Solving for Ux, Initial residual = 0.00080071935, Final residual = 1.3196218e-05, No Iterations 2
smoothSolver:  Solving for Uy, Initial residual = 0.00026550907, Final residual = 4.7567889e-06, No Iterations 2
smoothSolver:  Solving for Uz, Initial residual = 0.00059001826, Final residual = 8.9569204e-06, No Iterations 2
GAMG:  Solving for p, Initial residual = 0.020687302, Final residual = 0.00019360981, No Iterations 3
time step continuity errors : sum local = 0.0025485647, global = 2.8757645e-06, cumulative = 0.00014414993
smoothSolver:  Solving for epsilon, Initial residual = 0.00053601143, Final residual = 1.4806952e-05, No Iterations 1
smoothSolver:  Solving for k, Initial residual = 0.00036790079, Final residual = 2.8251183e-05, No Iterations 1
ExecutionTime = 73.81 s  ClockTime = 74 s

forces force write:
    sum of forces:
        pressure : (-5.2427252e-09 0.19746775 2.6232554e-07)
        viscous  : (-2.2543557e-07 0.0023653923 1.2082633e-07)
        porous   : (0 0 0)
    sum of moments:
        pressure : (5.5315067e-09 1.3431557e-08 -8.6982653e-08)
        viscous  : (5.1348932e-09 3.1432668e-11 -1.925399e-09)
        porous   : (0 0 0)

surfaceFieldValue pInlet write:
    average(inlet) of p = 13.682551

Time = 730

smoothSolver:  Solving for Ux, Initial residual = 0.00079807774, Final residual = 1.3178932e-05, No Iterations 2
smoothSolver:  Solving for Uy, Initial residual = 0.00026507657, Final residual = 4.7528735e-06, No Iterations 2
smoothSolver:  Solving for Uz, Initial residual = 0.00058674814, Final residual = 8.9484634e-06, No Iterations 2
GAMG:  Solving for p, Initial residual = 0.020894024, Final residual = 0.00017573993, No Iterations 3
time step continuity errors : sum local = 0.0023127319, global = -1.7383254e-06, cumulative = 0.0001424116
smoothSolver:  Solving for epsilon, Initial residual = 0.00051147024, Final residual = 1.4639721e-05, No Iterations 1
smoothSolver:  Solving for k, Initial residual = 0.00036646855, Final residual = 2.814898e-05, No Iterations 1
ExecutionTime = 76.57 s  ClockTime = 77 s

forces force write:
    sum of forces:
        pressure : (-5.5521496e-07 0.19745968 -1.0284272e-07)
        viscous  : (-3.3071588e-07 0.0023648248 4.1082682e-08)
        porous   : (0 0 0)
    sum of moments:
        pressure : (-7.6151373e-09 1.3940727e-08 -5.349409e-08)
        viscous  : (1.139971e-09 3.542837e-10 2.8808484e-09)
        porous   : (0 0 0)

surfaceFieldValue pInlet write:
    average(inlet) of p = 13.689272

Time = 731

smoothSolver:  Solving for Ux, Initial residual = 0.00079892662, Final residual = 1.3167178e-05, No Iterations 2
smoothSolver:  Solving for Uy, Initial residual = 0.00026549232, Final residual = 4.7509799e-06, No Iterations 2
smoothSolver:  Solving for Uz, Initial residual = 0.0005862547, Final residual = 8.9390199e-06, No Iterations 2
GAMG:  Solving for p, Initial residual = 0.020131783, Final residual = 0.00015099541, No Iterations 3
time step continuity errors : sum local = 0.0019873396, global = -6.284637e-06, cumulative = 0.00013612696
smoothSolver:  Solving for epsilon, Initial residual = 0.00049305627, Final residual = 1.4135974e-05, No Iterations 1
smoothSolver:  Solving for k, Initial residual = 0.00036402035, Final residual = 2.7894675e-05, No Iterations 1
ExecutionTime = 79.2 s  ClockTime = 79 s

forces force write:
    sum of forces:
        pressure : (-1.4567139e-06 0.19745216 -2.2919622e-08)
        viscous  : (2.1905963e-09 0.0023649922 -7.9362043e-08)
        porous   : (0 0 0)
    sum of moments:
        pressure : (-5.0192718e-09 1.5712974e-08 -2.4421999e-08)
        viscous  : (-3.4906068e-09 1.146973e-09 4.4392403e-10)
        porous   : (0 0 0)

surfaceFieldValue pInlet write:
    average(inlet) of p = 13.6962

Time = 732

smoothSolver:  Solving for Ux, Initial residual = 0.00079178268, Final residual = 1.3141032e-05, No Iterations 2
smoothSolver:  Solving for Uy, Initial residual = 0.00026482942, Final residual = 4.7468106e-06, No Iterations 2
smoothSolver:  Solving for Uz, Initial residual = 0.00057795432, Final residual = 8.9153923e-06, No Iterations 2
GAMG:  Solving for p, Initial residual = 0.019525172, Final residual = 0.00014429283, No Iterations 3
time step continuity errors : sum local = 0.0019012269, global = -1.0280126e-05, cumulative = 0.00012584684
smoothSolver:  Solving for epsilon, Initial residual = 0.00047175731, Final residual = 1.3596906e-05, No Iterations 1
smoothSolver:  Solving for k, Initial residual = 0.00035945845, Final residual = 2.7607519e-05, No Iterations 1
ExecutionTime = 81.88 s  ClockTime = 82 s

forces force write:
    sum of forces:
        pressure : (-2.3915045e-06 0.19744588 2.4316985e-08)
        viscous  : (2.3516042e-07 0.0023649254 5.7345969e-08)
        porous   : (0 0 0)
    sum of moments:
        pressure : (3.0299166e-09 1.1835502e-08 9.1164416e-09)
        viscous  : (2.4486594e-09 1.0916472e-09 7.1476928e-10)
        porous   : (0 0 0)

surfaceFieldValue pInlet write:
    average(inlet) of p = 13.705548

Time = 733

smoothSolver:  Solving for Ux, Initial residual = 0.00078243108, Final residual = 1.310905e-05, No Iterations 2
smoothSolver:  Solving for Uy, Initial residual = 0.00026408513, Final residual = 4.7429213e-06, No Iterations 2
smoothSolver:  Solving for Uz, Initial residual = 0.00056728914, Final residual = 8.887079e-06, No Iterations 2
GAMG:  Solving for p, Initial residual = 0.018809295, Final residual = 0.00015188833, No Iterations 3
time step continuity errors : sum local = 0.0020055171, global = -1.289126e-05, cumulative = 0.00011295558
smoothSolver:  Solving for epsilon, Initial residual = 0.00047349973, Final residual = 1.3510559e-05, No Iterations 1
smoothSolver:  Solving for k, Initial residual = 0.00035562554, Final residual = 2.7545324e-05, No Iterations 1
ExecutionTime = 84.7 s  ClockTime = 85 s

forces force write:
    sum of forces:
        pressure : (-1.2175399e-06 0.19744231 -2.8893707e-07)
        viscous  : (-1.8042755e-07 0.0023653996 3.1011198e-08)
        porous   : (0 0 0)
    sum of moments:
        pressure : (-7.6932358e-09 1.4218656e-08 -5.2624766e-08)
        viscous  : (2.1704426e-09 6.5624068e-10 -2.7198679e-09)
        porous   : (0 0 0)

surfaceFieldValue pInlet write:
    average(inlet) of p = 13.718667

Time = 734

smoothSolver:  Solving for Ux, Initial residual = 0.0007789206, Final residual = 1.3081809e-05, No Iterations 2
smoothSolver:  Solving for Uy, Initial residual = 0.00026328955, Final residual = 4.7381965e-06, No Iterations 2
smoothSolver:  Solving for Uz, Initial residual = 0.00056094477, Final residual = 8.8615575e-06, No Iterations 2
GAMG:  Solving for p, Initial residual = 0.018014902, Final residual = 0.00015964069, No Iterations 3
time step continuity errors : sum local = 0.0021132798, global = -1.4364718e-05, cumulative = 9.859086e-05
smoothSolver:  Solving for epsilon, Initial residual = 0.00047393437, Final residual = 1.3716078e-05, No Iterations 1
smoothSolver:  Solving for k, Initial residual = 0.00035063379, Final residual = 2.7393235e-05, No Iterations 1
ExecutionTime = 87.45 s  ClockTime = 88 s

forces force write:
    sum of forces:
        pressure : (-6.3066212e-07 0.19743391 -3.5185609e-07)
        viscous  : (-3.8054058e-07 0.0023646941 6.1144668e-08)
        porous   : (0 0 0)
    sum of moments:
        pressure : (-1.4581911e-08 1.8155511e-08 -6.9214058e-08)
        viscous  : (1.2102633e-09 5.4045631e-10 5.3704529e-10)
        porous   : (0 0 0)

surfaceFieldValue pInlet write:
    average(inlet) of p = 13.735119

Time = 735

smoothSolver:  Solving for Ux, Initial residual = 0.00077117006, Final residual = 1.3050802e-05, No Iterations 2
smoothSolver:  Solving for Uy, Initial residual = 0.00026217224, Final residual = 4.7313972e-06, No Iterations 2
smoothSolver:  Solving for Uz, Initial residual = 0.0005522523, Final residual = 8.8326804e-06, No Iterations 2
GAMG:  Solving for p, Initial residual = 0.01741144, Final residual = 0.00015774348, No Iterations 3
time step continuity errors : sum local = 0.002094813, global = -1.4307331e-05, cumulative = 8.428353e-05
smoothSolver:  Solving for epsilon, Initial residual = 0.00047893686, Final residual = 1.3634514e-05, No Iterations 1
smoothSolver:  Solving for k, Initial residual = 0.00034581896, Final residual = 2.7216416e-05, No Iterations 1
ExecutionTime = 90.18 s  ClockTime = 90 s

forces force write:
    sum of forces:
        pressure : (3.2185397e-08 0.1974291 -2.3167087e-07)
        viscous  : (-4.1071711e-07 0.0023651929 5.3987391e-08)
        porous   : (0 0 0)
    sum of moments:
        pressure : (-1.0987721e-08 1.6948407e-08 -9.5897847e-08)
        viscous  : (1.8334103e-09 2.8973687e-10 -6.1758494e-10)
        porous   : (0 0 0)

surfaceFieldValue pInlet write:
    average(inlet) of p = 13.752327

Time = 736

smoothSolver:  Solving for Ux, Initial residual = 0.00076702757, Final residual = 1.3036251e-05, No Iterations 2
smoothSolver:  Solving for Uy, Initial residual = 0.00026187752, Final residual = 4.7276579e-06, No Iterations 2
smoothSolver:  Solving for Uz, Initial residual = 0.00054525255, Final residual = 8.8178367e-06, No Iterations 2
GAMG:  Solving for p, Initial residual = 0.016998712, Final residual = 0.00015126532, No Iterations 3
time step continuity errors : sum local = 0.0020151764, global = -1.29932e-05, cumulative = 7.129033e-05
smoothSolver:  Solving for epsilon, Initial residual = 0.00047024807, Final residual = 1.3137573e-05, No Iterations 1
smoothSolver:  Solving for k, Initial residual = 0.00034339624, Final residual = 2.7020237e-05, No Iterations 1
ExecutionTime = 92.82 s  ClockTime = 93 s

forces force write:
    sum of forces:
        pressure : (-7.5940293e-07 0.19742254 1.0187014e-07)
        viscous  : (-7.2177934e-08 0.0023649519 -5.0419992e-09)
        porous   : (0 0 0)
    sum of moments:
        pressure : (5.6852066e-10 1.4903649e-08 -6.5403172e-08)
        viscous  : (4.55488e-11 1.3545837e-09 2.3706275e-09)
        porous   : (0 0 0)

surfaceFieldValue pInlet write:
    average(inlet) of p = 13.767857

Time = 737

smoothSolver:  Solving for Ux, Initial residual = 0.00076224982, Final residual = 1.3015615e-05, No Iterations 2
smoothSolver:  Solving for Uy, Initial residual = 0.00026077468, Final residual = 4.7183395e-06, No Iterations 2
smoothSolver:  Solving for Uz, Initial residual = 0.00054237859, Final residual = 8.8038356e-06, No Iterations 2
GAMG:  Solving for p, Initial residual = 0.016724053, Final residual = 0.00014685782, No Iterations 3
time step continuity errors : sum local = 0.0019626436, global = -1.0722983e-05, cumulative = 6.0567347e-05
smoothSolver:  Solving for epsilon, Initial residual = 0.00047067477, Final residual = 1.259144e-05, No Iterations 1
smoothSolver:  Solving for k, Initial residual = 0.00034044099, Final residual = 2.6855629e-05, No Iterations 1
ExecutionTime = 95.49 s  ClockTime = 96 s

forces force write:
    sum of forces:
        pressure : (-1.2586161e-06 0.1974131 5.0660858e-07)
        viscous  : (1.633169e-07 0.0023647556 4.6890833e-08)
        porous   : (0 0 0)
    sum of moments:
        pressure : (1.4465291e-08 1.6345366e-08 -6.0439221e-08)
        viscous  : (8.4864953e-10 1.71328e-10 -1.7849811e-09)
        porous   : (0 0 0)

surfaceFieldValue pInlet write:
    average(inlet) of p = 13.778225

Time = 738

smoothSolver:  Solving for Ux, Initial residual = 0.00076263605, Final residual = 1.3006287e-05, No Iterations 2
smoothSolver:  Solving for Uy, Initial residual = 0.00026123114, Final residual = 4.7165435e-06, No Iterations 2
smoothSolver:  Solving for Uz, Initial residual = 0.0005439404, Final residual = 8.801453e-06, No Iterations 2
GAMG:  Solving for p, Initial residual = 0.016685292, Final residual = 0.000137869, No Iterations 3
time step continuity errors : sum local = 0.0018462229, global = -7.989123e-06, cumulative = 5.2578224e-05
smoothSolver:  Solving for epsilon, Initial residual = 0.00047249502, Final residual = 1.2252592e-05, No Iterations 1
smoothSolver:  Solving for k, Initial residual = 0.00034033807, Final residual = 2.6722676e-05, No Iterations 1
ExecutionTime = 98.18 s  ClockTime = 98 s

forces force write:
    sum of forces:
        pressure : (-1.369042e-06 0.1974044 5.0505115e-07)
        viscous  : (-2.3165987e-07 0.0023648376 1.0617327e-07)
        porous   : (0 0 0)
    sum of moments:
        pressure : (1.3164178e-08 1.4205221e-08 -4.5641997e-08)
        viscous  : (3.6783956e-09 3.2939866e-11 2.4522627e-09)
        porous   : (0 0 0)

surfaceFieldValue pInlet write:
    average(inlet) of p = 13.78318

Time = 739

smoothSolver:  Solving for Ux, Initial residual = 0.00076199333, Final residual = 1.2985356e-05, No Iterations 2
smoothSolver:  Solving for Uy, Initial residual = 0.00026088408, Final residual = 4.7083276e-06, No Iterations 2
smoothSolver:  Solving for Uz, Initial residual = 0.00054472116, Final residual = 8.7884262e-06, No Iterations 2
GAMG:  Solving for p, Initial residual = 0.017197715, Final residual = 0.00012523893, No Iterations 3
time step continuity errors : sum local = 0.0016801562, global = -4.8773521e-06, cumulative = 4.7700872e-05
smoothSolver:  Solving for epsilon, Initial residual = 0.00047824077, Final residual = 1.1994898e-05, No Iterations 1
smoothSolver:  Solving for k, Initial residual = 0.00034043008, Final residual = 2.6646658e-05, No Iterations 1
ExecutionTime = 100.83 s  ClockTime = 101 s

forces force write:
    sum of forces:
        pressure : (-3.2046973e-07 0.19739715 2.5192541e-07)
        viscous  : (-3.4326608e-07 0.0023649515 6.3878742e-09)
        porous   : (0 0 0)
    sum of moments:
        pressure : (-8.8054162e-10 1.5150721e-08 -8.2018587e-08)
        viscous  : (3.1576735e-10 1.283376e-09 -1.1282791e-09)
        porous   : (0 0 0)

surfaceFieldValue pInlet write:
    average(inlet) of p = 13.780549

Time = 740

smoothSolver:  Solving for Ux, Initial residual = 0.00076690009, Final residual = 1.2972868e-05, No Iterations 2
smoothSolver:  Solving for Uy, Initial residual = 0.00026114514, Final residual = 4.7053239e-06, No Iterations 2
smoothSolver:  Solving for Uz, Initial residual = 0.00054970978, Final residual = 8.7805703e-06, No Iterations 2
GAMG:  Solving for p, Initial residual = 0.017682158, Final residual = 0.00011969514, No Iterations 3
time step continuity errors : sum local = 0.0016069349, global = -1.7142989e-06, cumulative = 4.5986573e-05
smoothSolver:  Solving for epsilon, Initial residual = 0.00048166773, Final residual = 1.1998838e-05, No Iterations 1
smoothSolver:  Solving for k, Initial residual = 0.00034054128, Final residual = 2.657621e-05, No Iterations 1
ExecutionTime = 103.59 s  ClockTime = 104 s

forces force write:
    sum of forces:
        pressure : (-2.3168062e-07 0.19738399 2.5126969e-07)
        viscous  : (-1.7556538e-07 0.0023642402 6.2490527e-08)
        porous   : (0 0 0)
    sum of moments:
        pressure : (-4.9343012e-09 1.6474425e-08 -7.639961e-08)
        viscous  : (1.8294863e-09 1.0612352e-09 2.7896448e-10)
        porous   : (0 0 0)

surfaceFieldValue pInlet write:
    average(inlet) of p = 13.769772

Time = 741

smoothSolver:  Solving for Ux, Initial residual = 0.00077469128, Final residual = 1.2965151e-05, No Iterations 2
smoothSolver:  Solving for Uy, Initial residual = 0.00026112204, Final residual = 4.6994242e-06, No Iterations 2
smoothSolver:  Solving for Uz, Initial residual = 0.00055702303, Final residual = 8.7681282e-06, No Iterations 2
GAMG:  Solving for p, Initial residual = 0.018252406, Final residual = 0.0001299271, No Iterations 3
time step continuity errors : sum local = 0.0017442416, global = 4.9270451e-07, cumulative = 4.6479277e-05
smoothSolver:  Solving for epsilon, Initial residual = 0.00048767533, Final residual = 1.2102195e-05, No Iterations 1
smoothSolver:  Solving for k, Initial residual = 0.00034343459, Final residual = 2.676333e-05, No Iterations 1
ExecutionTime = 106.35 s  ClockTime = 107 s

forces force write:
    sum of forces:
        pressure : (-6.1782562e-07 0.19737456 4.6925059e-07)
        viscous  : (1.7256892e-07 0.0023649436 7.6310182e-08)
        porous   : (0 0 0)
    sum of moments:
        pressure : (1.017256e-08 1.4226686e-08 -6.8857387e-08)
        viscous  : (2.6965471e-09 -1.6546698e-10 -1.1692594e-09)
        porous   : (0 0 0)

surfaceFieldValue pInlet write:
    average(inlet) of p = 13.748705

Time = 742

smoothSolver:  Solving for Ux, Initial residual = 0.0007865281, Final residual = 1.2966282e-05, No Iterations 2
smoothSolver:  Solving for Uy, Initial residual = 0.00026213215, Final residual = 4.6961895e-06, No Iterations 2
smoothSolver:  Solving for Uz, Initial residual = 0.00057023827, Final residual = 8.7654178e-06, No Iterations 2
GAMG:  Solving for p, Initial residual = 0.018456138, Final residual = 0.00015971605, No Iterations 3
time step continuity errors : sum local = 0.0021408054, global = 2.1144429e-06, cumulative = 4.859372e-05
smoothSolver:  Solving for epsilon, Initial residual = 0.00048839417, Final residual = 1.2740023e-05, No Iterations 1
smoothSolver:  Solving for k, Initial residual = 0.00034582394, Final residual = 2.7000232e-05, No Iterations 1
ExecutionTime = 109.01 s  ClockTime = 109 s

forces force write:
    sum of forces:
        pressure : (-1.1903781e-06 0.19736475 4.4896651e-07)
        viscous  : (2.0082731e-07 0.0023646649 -4.2861545e-08)
        porous   : (0 0 0)
    sum of moments:
        pressure : (1.2602204e-08 1.4206683e-08 -4.0904109e-08)
        viscous  : (-1.1482488e-09 8.9354899e-10 1.3921451e-09)
        porous   : (0 0 0)

surfaceFieldValue pInlet write:
    average(inlet) of p = 13.719337

Time = 743

smoothSolver:  Solving for Ux, Initial residual = 0.00079301933, Final residual = 1.2953808e-05, No Iterations 2
smoothSolver:  Solving for Uy, Initial residual = 0.00026224356, Final residual = 4.6907223e-06, No Iterations 2
smoothSolver:  Solving for Uz, Initial residual = 0.00058031064, Final residual = 8.7605104e-06, No Iterations 2
GAMG:  Solving for p, Initial residual = 0.018643106, Final residual = 0.00010976768, No Iterations 4
time step continuity errors : sum local = 0.0014666197, global = 1.0723457e-06, cumulative = 4.9666066e-05
smoothSolver:  Solving for epsilon, Initial residual = 0.00047894078, Final residual = 1.3418493e-05, No Iterations 1
smoothSolver:  Solving for k, Initial residual = 0.00035116808, Final residual = 2.7233833e-05, No Iterations 1
ExecutionTime = 111.77 s  ClockTime = 112 s

forces force write:
    sum of forces:
        pressure : (-1.1831882e-08 0.19735189 3.1773485e-07)
        viscous  : (-2.0004786e-07 0.0023649712 5.1683588e-09)
        porous   : (0 0 0)
    sum of moments:
        pressure : (2.0053798e-09 1.7563189e-08 -8.5791463e-08)
        viscous  : (-6.73767e-10 4.9802932e-10 -3.4859482e-09)
        porous   : (0 0 0)

surfaceFieldValue pInlet write:
    average(inlet) of p = 13.681296

Time = 744

smoothSolver:  Solving for Ux, Initial residual = 0.00079564915, Final residual = 1.2933743e-05, No Iterations 2
smoothSolver:  Solving for Uy, Initial residual = 0.00026178409, Final residual = 4.6848581e-06, No Iterations 2
smoothSolver:  Solving for Uz, Initial residual = 0.00059009679, Final residual = 8.7557128e-06, No Iterations 2
GAMG:  Solving for p, Initial residual = 0.018910272, Final residual = 0.00011293248, No Iterations 4
time step continuity errors : sum local = 0.0015007571, global = 7.4628279e-07, cumulative = 5.0412349e-05
smoothSolver:  Solving for epsilon, Initial residual = 0.00048413228, Final residual = 1.4183368e-05, No Iterations 1
smoothSolver:  Solving for k, Initial residual = 0.00035852984, Final residual = 2.728674e-05, No Iterations 1
ExecutionTime = 114.54 s  ClockTime = 115 s

forces force write:
    sum of forces:
        pressure : (3.8818542e-07 0.1973412 7.3082524e-08)
        viscous  : (-3.0178213e-07 0.0023647605 1.3021304e-07)
        porous   : (0 0 0)
    sum of moments:
        pressure : (-5.2116683e-09 1.3521842e-08 -8.995036e-08)
        viscous  : (4.8057421e-09 1.1945278e-09 -6.0012138e-10)
        porous   : (0 0 0)

surfaceFieldValue pInlet write:
    average(inlet) of p = 13.64818

Time = 745

smoothSolver:  Solving for Ux, Initial residual = 0.00079934249, Final residual = 1.291405e-05, No Iterations 2
smoothSolver:  Solving for Uy, Initial residual = 0.00026247761, Final residual = 4.6850125e-06, No Iterations 2
smoothSolver:  Solving for Uz, Initial residual = 0.00059005105, Final residual = 8.7386258e-06, No Iterations 2
GAMG:  Solving for p, Initial residual = 0.018533637, Final residual = 0.00018037951, No Iterations 3
time step continuity errors : sum local = 0.0023810899, global = 1.2117979e-06, cumulative = 5.1624147e-05
smoothSolver:  Solving for epsilon, Initial residual = 0.00050398892, Final residual = 1.4620405e-05, No Iterations 1
smoothSolver:  Solving for k, Initial residual = 0.00036710623, Final residual = 2.7415812e-05, No Iterations 1
ExecutionTime = 117.2 s  ClockTime = 117 s

forces force write:
    sum of forces:
        pressure : (8.3491691e-07 0.19733577 -2.2659925e-07)
        viscous  : (-2.0988672e-07 0.0023647911 6.6707045e-08)
        porous   : (0 0 0)
    sum of moments:
        pressure : (-1.2974748e-08 1.466575e-08 -1.1310018e-07)
        viscous  : (2.3207959e-09 9.757717e-10 -2.346994e-09)
        porous   : (0 0 0)

surfaceFieldValue pInlet write:
    average(inlet) of p = 13.630421

Time = 746

smoothSolver:  Solving for Ux, Initial residual = 0.00078793004, Final residual = 1.2871801e-05, No Iterations 2
smoothSolver:  Solving for Uy, Initial residual = 0.0002614666, Final residual = 4.6762305e-06, No Iterations 2
smoothSolver:  Solving for Uz, Initial residual = 0.00058267382, Final residual = 8.7126992e-06, No Iterations 2
GAMG:  Solving for p, Initial residual = 0.018498224, Final residual = 0.00014848951, No Iterations 3
time step continuity errors : sum local = 0.0019506688, global = -3.7579682e-07, cumulative = 5.124835e-05
smoothSolver:  Solving for epsilon, Initial residual = 0.00054424289, Final residual = 1.4972496e-05, No Iterations 1
smoothSolver:  Solving for k, Initial residual = 0.00036824047, Final residual = 2.745595e-05, No Iterations 1
ExecutionTime = 119.92 s  ClockTime = 120 s

forces force write:
    sum of forces:
        pressure : (-4.8941024e-07 0.1973265 -1.2654341e-07)
        viscous  : (-7.51288e-08 0.0023641865 -2.8139257e-08)
        porous   : (0 0 0)
    sum of moments:
        pressure : (-5.2737725e-09 1.6334767e-08 -5.2738535e-08)
        viscous  : (-1.9697733e-09 3.0046424e-10 3.1084361e-09)
        porous   : (0 0 0)

surfaceFieldValue pInlet write:
    average(inlet) of p = 13.625702

Time = 747

smoothSolver:  Solving for Ux, Initial residual = 0.00077799, Final residual = 1.2847606e-05, No Iterations 2
smoothSolver:  Solving for Uy, Initial residual = 0.00026177467, Final residual = 4.6739632e-06, No Iterations 2
smoothSolver:  Solving for Uz, Initial residual = 0.00057316606, Final residual = 8.6927018e-06, No Iterations 2
GAMG:  Solving for p, Initial residual = 0.01894233, Final residual = 0.00013463952, No Iterations 3
time step continuity errors : sum local = 0.0017643018, global = -2.3837044e-06, cumulative = 4.8864646e-05
smoothSolver:  Solving for epsilon, Initial residual = 0.00055375637, Final residual = 1.4685174e-05, No Iterations 1
smoothSolver:  Solving for k, Initial residual = 0.00036637159, Final residual = 2.726461e-05, No Iterations 1
ExecutionTime = 122.7 s  ClockTime = 123 s

forces force write:
    sum of forces:
        pressure : (-1.026727e-06 0.19732174 -1.3656168e-07)
        viscous  : (-1.0115131e-07 0.002364641 -1.8139041e-08)
        porous   : (0 0 0)
    sum of moments:
        pressure : (2.5486787e-09 1.3713452e-08 -3.2780491e-08)
        viscous  : (-1.7627207e-10 1.527759e-10 4.9695665e-10)
        porous   : (0 0 0)

surfaceFieldValue pInlet write:
    average(inlet) of p = 13.635711

Time = 748

smoothSolver:  Solving for Ux, Initial residual = 0.0007753417, Final residual = 1.2836435e-05, No Iterations 2
smoothSolver:  Solving for Uy, Initial residual = 0.00026129114, Final residual = 4.6693061e-06, No Iterations 2
smoothSolver:  Solving for Uz, Initial residual = 0.00056709612, Final residual = 8.6829191e-06, No Iterations 2
GAMG:  Solving for p, Initial residual = 0.019983327, Final residual = 0.00014836558, No Iterations 3
time step continuity errors : sum local = 0.0019448943, global = -4.2289381e-06, cumulative = 4.4635707e-05
smoothSolver:  Solving for epsilon, Initial residual = 0.00055187285, Final residual = 1.4592595e-05, No Iterations 1
smoothSolver:  Solving for k, Initial residual = 0.00036033672, Final residual = 2.7399206e-05, No Iterations 1
ExecutionTime = 125.33 s  ClockTime = 126 s

forces force write:
    sum of forces:
        pressure : (-1.0149145e-06 0.19731603 -5.701864e-07)
        viscous  : (-2.3404849e-07 0.0023644389 7.3100742e-08)
        porous   : (0 0 0)
    sum of moments:
        pressure : (-1.2277495e-08 1.309633e-08 -3.0775046e-08)
        viscous  : (2.4704953e-09 4.9276398e-10 8.2406093e-10)
        porous   : (0 0 0)

surfaceFieldValue pInlet write:
    average(inlet) of p = 13.657083

Time = 749

smoothSolver:  Solving for Ux, Initial residual = 0.00077607347, Final residual = 1.2831451e-05, No Iterations 2
smoothSolver:  Solving for Uy, Initial residual = 0.00026118334, Final residual = 4.6664021e-06, No Iterations 2
smoothSolver:  Solving for Uz, Initial residual = 0.00056333378, Final residual = 8.6785739e-06, No Iterations 2
GAMG:  Solving for p, Initial residual = 0.02083228, Final residual = 0.00016720125, No Iterations 3
time step continuity errors : sum local = 0.0021959888, global = -5.619073e-06, cumulative = 3.9016634e-05
smoothSolver:  Solving for epsilon, Initial residual = 0.00053662524, Final residual = 1.451388e-05, No Iterations 1
smoothSolver:  Solving for k, Initial residual = 0.00035163438, Final residual = 2.7336797e-05, No Iterations 1
ExecutionTime = 128.02 s  ClockTime = 128 s

forces force write:
    sum of forces:
        pressure : (-7.4308894e-07 0.19730841 -7.2332375e-07)
        viscous  : (-2.7714866e-07 0.0023643876 1.0786818e-07)
        porous   : (0 0 0)
    sum of moments:
        pressure : (-2.1547558e-08 1.7183798e-08 -5.1202458e-08)
        viscous  : (2.6438627e-09 -9.3618515e-10 -9.5867503e-10)
        porous   : (0 0 0)

surfaceFieldValue pInlet write:
    average(inlet) of p = 13.685425

Time = 750

smoothSolver:  Solving for Ux, Initial residual = 0.00077296658, Final residual = 1.2818236e-05, No Iterations 2
smoothSolver:  Solving for Uy, Initial residual = 0.00026036235, Final residual = 4.6599758e-06, No Iterations 2
smoothSolver:  Solving for Uz, Initial residual = 0.00055905957, Final residual = 8.6675751e-06, No Iterations 2
GAMG:  Solving for p, Initial residual = 0.021349535, Final residual = 0.00017876423, No Iterations 3
time step continuity errors : sum local = 0.0023539704, global = -6.9338836e-06, cumulative = 3.2082751e-05
smoothSolver:  Solving for epsilon, Initial residual = 0.00048615679, Final residual = 1.406923e-05, No Iterations 1
smoothSolver:  Solving for k, Initial residual = 0.0003412422, Final residual = 2.7213721e-05, No Iterations 1
ExecutionTime = 130.83 s  ClockTime = 131 s

forces force write:
    sum of forces:
        pressure : (-1.365899e-06 0.19730204 -6.9350449e-07)
        viscous  : (-1.3923518e-07 0.0023643974 4.8977911e-08)
        porous   : (0 0 0)
    sum of moments:
        pressure : (-1.8237227e-08 1.2044091e-08 -3.2822759e-08)
        viscous  : (3.0195073e-09 1.6022835e-09 2.0789015e-09)
        porous   : (0 0 0)

surfaceFieldValue pInlet write:
    average(inlet) of p = 13.716057

Time = 751

smoothSolver:  Solving for Ux, Initial residual = 0.00077389811, Final residual = 1.2809878e-05, No Iterations 2
smoothSolver:  Solving for Uy, Initial residual = 0.00025964511, Final residual = 4.6537244e-06, No Iterations 2
smoothSolver:  Solving for Uz, Initial residual = 0.00055801053, Final residual = 8.6591837e-06, No Iterations 2
GAMG:  Solving for p, Initial residual = 0.020562811, Final residual = 0.00018345408, No Iterations 3
time step continuity errors : sum local = 0.0024211737, global = -8.2032495e-06, cumulative = 2.3879501e-05
smoothSolver:  Solving for epsilon, Initial residual = 0.00044151796, Final residual = 1.3290253e-05, No Iterations 1
smoothSolver:  Solving for k, Initial residual = 0.00033896251, Final residual = 2.6854798e-05, No Iterations 1
ExecutionTime = 133.54 s  ClockTime = 134 s

forces force write:
    sum of forces:
        pressure : (-1.6197021e-06 0.19729738 -4.4416329e-07)
        viscous  : (8.7864502e-08 0.0023647946 -5.4606948e-08)
        porous   : (0 0 0)
    sum of moments:
        pressure : (-1.009242e-08 1.1310182e-08 -3.4967765e-08)
        viscous  : (-1.5244706e-09 1.2979272e-09 -9.0155721e-10)
        porous   : (0 0 0)

surfaceFieldValue pInlet write:
    average(inlet) of p = 13.745671

Time = 752

smoothSolver:  Solving for Ux, Initial residual = 0.00077079284, Final residual = 1.2788039e-05, No Iterations 2
smoothSolver:  Solving for Uy, Initial residual = 0.00025864267, Final residual = 4.6454054e-06, No Iterations 2
smoothSolver:  Solving for Uz, Initial residual = 0.00055355595, Final residual = 8.6406518e-06, No Iterations 2
GAMG:  Solving for p, Initial residual = 0.019355172, Final residual = 0.00018105125, No Iterations 3
time step continuity errors : sum local = 0.0023943867, global = -9.0342331e-06, cumulative = 1.4845268e-05
smoothSolver:  Solving for epsilon, Initial residual = 0.00042432773, Final residual = 1.2531703e-05, No Iterations 1
smoothSolver:  Solving for k, Initial residual = 0.00033642773, Final residual = 2.6512735e-05, No Iterations 1
ExecutionTime = 136.32 s  ClockTime = 137 s

forces force write:
    sum of forces:
        pressure : (-2.0426006e-06 0.19728679 4.2221077e-08)
        viscous  : (2.1587096e-08 0.0023641483 3.4611679e-08)
        porous   : (0 0 0)
    sum of moments:
        pressure : (4.1685136e-09 1.4178256e-08 -1.7023133e-08)
        viscous  : (7.2513179e-10 -3.2042657e-10 1.1500537e-09)
        porous   : (0 0 0)

surfaceFieldValue pInlet write:
    average(inlet) of p = 13.772301

Time = 753

smoothSolver:  Solving for Ux, Initial residual = 0.00076374227, Final residual = 1.2758738e-05, No Iterations 2
smoothSolver:  Solving for Uy, Initial residual = 0.00025905781, Final residual = 4.6415622e-06, No Iterations 2
smoothSolver:  Solving for Uz, Initial residual = 0.0005500209, Final residual = 8.623256e-06, No Iterations 2
GAMG:  Solving for p, Initial residual = 0.017918679, Final residual = 0.00016748433, No Iterations 3
time step continuity errors : sum local = 0.0022190706, global = -9.6383739e-06, cumulative = 5.2068944e-06
smoothSolver:  Solving for epsilon, Initial residual = 0.00042446553, Final residual = 1.21045e-05, No Iterations 1
smoothSolver:  Solving for k, Initial residual = 0.00033633097, Final residual = 2.6203425e-05, No Iterations 1
ExecutionTime = 139.06 s  ClockTime = 139 s

forces force write:
    sum of forces:
        pressure : (-9.9951091e-07 0.19728012 1.3496156e-07)
        viscous  : (-1.2778256e-07 0.0023647835 7.1283037e-08)
        porous   : (0 0 0)
    sum of moments:
        pressure : (3.10033e-09 1.3481923e-08 -6.5609709e-08)
        viscous  : (2.7334738e-09 2.3117282e-10 -3.2753163e-09)
        porous   : (0 0 0)

surfaceFieldValue pInlet write:
    average(inlet) of p = 13.794532

Time = 754

smoothSolver:  Solving for Ux, Initial residual = 0.00075841571, Final residual = 1.2734095e-05, No Iterations 2
smoothSolver:  Solving for Uy, Initial residual = 0.00025899942, Final residual = 4.6362873e-06, No Iterations 2
smoothSolver:  Solving for Uz, Initial residual = 0.00054583261, Final residual = 8.6010959e-06, No Iterations 2
GAMG:  Solving for p, Initial residual = 0.017026699, Final residual = 0.0001441456, No Iterations 3
time step continuity errors : sum local = 0.0019139119, global = -1.0142217e-05, cumulative = -4.9353224e-06
smoothSolver:  Solving for epsilon, Initial residual = 0.00044516262, Final residual = 1.2176469e-05, No Iterations 1
smoothSolver:  Solving for k, Initial residual = 0.0003373533, Final residual = 2.6069436e-05, No Iterations 1
ExecutionTime = 141.73 s  ClockTime = 142 s

forces force write:
    sum of forces:
        pressure : (-2.7508798e-07 0.19727142 -5.7548748e-08)
        viscous  : (-2.4865476e-07 0.0023643388 6.5589358e-08)
        porous   : (0 0 0)
    sum of moments:
        pressure : (-6.7988849e-09 1.4112296e-08 -8.8620455e-08)
        viscous  : (2.6518565e-09 1.4425909e-09 -2.1713823e-11)
        porous   : (0 0 0)

surfaceFieldValue pInlet write:
    average(inlet) of p = 13.810607

Time = 755

smoothSolver:  Solving for Ux, Initial residual = 0.00075259909, Final residual = 1.2703281e-05, No Iterations 2
smoothSolver:  Solving for Uy, Initial residual = 0.00025894143, Final residual = 4.633479e-06, No Iterations 2
smoothSolver:  Solving for Uz, Initial residual = 0.00053973025, Final residual = 8.5745789e-06, No Iterations 2
GAMG:  Solving for p, Initial residual = 0.016797048, Final residual = 0.00012174057, No Iterations 3
time step continuity errors : sum local = 0.0016196087, global = -1.0446124e-05, cumulative = -1.5381446e-05
smoothSolver:  Solving for epsilon, Initial residual = 0.000479712, Final residual = 1.2200234e-05, No Iterations 1
smoothSolver:  Solving for k, Initial residual = 0.00033617237, Final residual = 2.5887514e-05, No Iterations 1
ExecutionTime = 144.37 s  ClockTime = 145 s

forces force write:
    sum of forces:
        pressure : (3.2543933e-07 0.19725954 3.8877162e-09)
        viscous  : (-3.2351375e-07 0.0023639864 -3.7967673e-10)
        porous   : (0 0 0)
    sum of moments:
        pressure : (-8.6277589e-09 1.853704e-08 -1.025639e-07)
        viscous  : (-1.189514e-11 -1.0018547e-09 -3.3064888e-10)
        porous   : (0 0 0)

surfaceFieldValue pInlet write:
    average(inlet) of p = 13.81981

Time = 756

smoothSolver:  Solving for Ux, Initial residual = 0.00074567436, Final residual = 1.2677702e-05, No Iterations 2
smoothSolver:  Solving for Uy, Initial residual = 0.00025849141, Final residual = 4.629101e-06, No Iterations 2
smoothSolver:  Solving for Uz, Initial residual = 0.0005335788, Final residual = 8.5442509e-06, No Iterations 2
GAMG:  Solving for p, Initial residual = 0.016961149, Final residual = 0.0001237483, No Iterations 3
time step continuity errors : sum local = 0.0016504459, global = -1.098109e-05, cumulative = -2.6362536e-05
smoothSolver:  Solving for epsilon, Initial residual = 0.00050392723, Final residual = 1.2089132e-05, No Iterations 1
smoothSolver:  Solving for k, Initial residual = 0.00033518507, Final residual = 2.5942645e-05, No Iterations 1
ExecutionTime = 147.22 s  ClockTime = 148 s

forces force write:
    sum of forces:
        pressure : (-6.1579879e-07 0.19724934 3.3529261e-07)
        viscous  : (8.8946268e-08 0.0023642975 2.8925642e-08)
        porous   : (0 0 0)
    sum of moments:
        pressure : (7.2431402e-09 1.3330259e-08 -4.9965428e-08)
        viscous  : (8.6491127e-10 1.0843901e-09 2.0256616e-09)
        porous   : (0 0 0)

surfaceFieldValue pInlet write:
    average(inlet) of p = 13.82042

Time = 757

smoothSolver:  Solving for Ux, Initial residual = 0.00074665911, Final residual = 1.2669283e-05, No Iterations 2
smoothSolver:  Solving for Uy, Initial residual = 0.00025945218, Final residual = 4.6317988e-06, No Iterations 2
smoothSolver:  Solving for Uz, Initial residual = 0.00053691015, Final residual = 8.5280403e-06, No Iterations 2
GAMG:  Solving for p, Initial residual = 0.017291298, Final residual = 0.00014683511, No Iterations 3
time step continuity errors : sum local = 0.001962716, global = -1.1731702e-05, cumulative = -3.8094238e-05
smoothSolver:  Solving for epsilon, Initial residual = 0.00051964226, Final residual = 1.2273379e-05, No Iterations 1
smoothSolver:  Solving for k, Initial residual = 0.00033508073, Final residual = 2.6024825e-05, No Iterations 1
ExecutionTime = 149.96 s  ClockTime = 150 s

forces force write:
    sum of forces:
        pressure : (-6.1982612e-07 0.19724318 3.4376471e-07)
        viscous  : (2.1122452e-07 0.0023646058 -1.8210719e-08)
        porous   : (0 0 0)
    sum of moments:
        pressure : (8.7462995e-09 1.2924198e-08 -5.6358125e-08)
        viscous  : (-8.7246192e-10 1.0415995e-09 -2.3062646e-09)
        porous   : (0 0 0)

surfaceFieldValue pInlet write:
    average(inlet) of p = 13.812607

Time = 758

smoothSolver:  Solving for Ux, Initial residual = 0.00075028132, Final residual = 1.2653409e-05, No Iterations 2
smoothSolver:  Solving for Uy, Initial residual = 0.00025851196, Final residual = 4.6217073e-06, No Iterations 2
smoothSolver:  Solving for Uz, Initial residual = 0.00054175028, Final residual = 8.5168591e-06, No Iterations 2
GAMG:  Solving for p, Initial residual = 0.018003969, Final residual = 0.00010482163, No Iterations 4
time step continuity errors : sum local = 0.0014041595, global = -1.1108026e-05, cumulative = -4.9202264e-05
smoothSolver:  Solving for epsilon, Initial residual = 0.00050713445, Final residual = 1.2368352e-05, No Iterations 1
smoothSolver:  Solving for k, Initial residual = 0.00033451243, Final residual = 2.6027446e-05, No Iterations 1
ExecutionTime = 152.69 s  ClockTime = 153 s

forces force write:
    sum of forces:
        pressure : (-2.567575e-07 0.19723098 1.2188305e-07)
        viscous  : (-2.3401146e-07 0.002364081 1.0200735e-07)
        porous   : (0 0 0)
    sum of moments:
        pressure : (2.2278614e-09 1.6477627e-08 -6.4356341e-08)
        viscous  : (3.249396e-09 -4.849927e-10 8.4125884e-10)
        porous   : (0 0 0)

surfaceFieldValue pInlet write:
    average(inlet) of p = 13.791773

Time = 759

smoothSolver:  Solving for Ux, Initial residual = 0.00075378377, Final residual = 1.2642897e-05, No Iterations 2
smoothSolver:  Solving for Uy, Initial residual = 0.00025745036, Final residual = 4.6160295e-06, No Iterations 2
smoothSolver:  Solving for Uz, Initial residual = 0.00054990559, Final residual = 8.5156554e-06, No Iterations 2
GAMG:  Solving for p, Initial residual = 0.018621849, Final residual = 0.00010925506, No Iterations 4
time step continuity errors : sum local = 0.0014648429, global = -1.041939e-05, cumulative = -5.9621654e-05
smoothSolver:  Solving for epsilon, Initial residual = 0.00049611799, Final residual = 1.2667321e-05, No Iterations 1
smoothSolver:  Solving for k, Initial residual = 0.00033559428, Final residual = 2.6095539e-05, No Iterations 1
ExecutionTime = 155.4 s  ClockTime = 156 s

forces force write:
    sum of forces:
        pressure : (5.5351423e-07 0.19722569 -8.5634832e-08)
        viscous  : (-3.6658257e-07 0.0023645296 4.5903671e-08)
        porous   : (0 0 0)
    sum of moments:
        pressure : (-4.1446086e-09 1.4713504e-08 -9.4315913e-08)
        viscous  : (2.4580354e-09 9.3757679e-10 -1.2374629e-09)
        porous   : (0 0 0)

surfaceFieldValue pInlet write:
    average(inlet) of p = 13.765705

Time = 760

smoothSolver:  Solving for Ux, Initial residual = 0.00075786492, Final residual = 1.2628882e-05, No Iterations 2
smoothSolver:  Solving for Uy, Initial residual = 0.0002566175, Final residual = 4.6088442e-06, No Iterations 2
smoothSolver:  Solving for Uz, Initial residual = 0.00055620327, Final residual = 8.5073408e-06, No Iterations 2
GAMG:  Solving for p, Initial residual = 0.018778455, Final residual = 0.00017256512, No Iterations 3
time step continuity errors : sum local = 0.0023120665, global = -1.0215232e-05, cumulative = -6.9836886e-05
smoothSolver:  Solving for epsilon, Initial residual = 0.00048442722, Final residual = 1.2687198e-05, No Iterations 1
smoothSolver:  Solving for k, Initial residual = 0.00034032007, Final residual = 2.6007771e-05, No Iterations 1
ExecutionTime = 158.04 s  ClockTime = 158 s

forces force write:
    sum of forces:
        pressure : (5.899157e-07 0.19722134 -3.6135157e-07)
        viscous  : (-2.1664105e-07 0.0023639894 2.4843568e-08)
        porous   : (0 0 0)
    sum of moments:
        pressure : (-1.4575866e-08 1.4226025e-08 -9.168295e-08)
        viscous  : (1.1191069e-09 9.1348052e-10 1.5432837e-10)
        porous   : (0 0 0)

surfaceFieldValue pInlet write:
    average(inlet) of p = 13.741696

Time = 761

smoothSolver:  Solving for Ux, Initial residual = 0.00076467108, Final residual = 1.2616743e-05, No Iterations 2
smoothSolver:  Solving for Uy, Initial residual = 0.00025701834, Final residual = 4.6031944e-06, No Iterations 2
smoothSolver:  Solving for Uz, Initial residual = 0.00056223008, Final residual = 8.5056555e-06, No Iterations 2
GAMG:  Solving for p, Initial residual = 0.01843088, Final residual = 0.00014228631, No Iterations 3
time step continuity errors : sum local = 0.0019039126, global = -8.7227631e-06, cumulative = -7.8559649e-05
smoothSolver:  Solving for epsilon, Initial residual = 0.00049643908, Final residual = 1.2933458e-05, No Iterations 1
smoothSolver:  Solving for k, Initial residual = 0.00034346815, Final residual = 2.6151028e-05, No Iterations 1
ExecutionTime = 160.67 s  ClockTime = 161 s

forces force write:
    sum of forces:
        pressure : (-1.3791445e-07 0.19721549 -2.4616099e-07)
        viscous  : (-3.4187601e-08 0.0023640076 2.0063789e-08)
        porous   : (0 0 0)
    sum of moments:
        pressure : (-8.4241583e-09 1.6590787e-08 -7.3317531e-08)
        viscous  : (-8.7513934e-10 -7.3645871e-10 -3.1742189e-10)
        porous   : (0 0 0)

surfaceFieldValue pInlet write:
    average(inlet) of p = 13.714313

Time = 762

smoothSolver:  Solving for Ux, Initial residual = 0.0007729637, Final residual = 1.260579e-05, No Iterations 2
smoothSolver:  Solving for Uy, Initial residual = 0.00025787331, Final residual = 4.5993867e-06, No Iterations 2
smoothSolver:  Solving for Uz, Initial residual = 0.00056930511, Final residual = 8.5017716e-06, No Iterations 2
GAMG:  Solving for p, Initial residual = 0.018354847, Final residual = 0.00012305935, No Iterations 3
time step continuity errors : sum local = 0.0016432674, global = -7.0212077e-06, cumulative = -8.5580857e-05
smoothSolver:  Solving for epsilon, Initial residual = 0.00049089387, Final residual = 1.2820357e-05, No Iterations 1
smoothSolver:  Solving for k, Initial residual = 0.00034444441, Final residual = 2.609675e-05, No Iterations 1
ExecutionTime = 163.3 s  ClockTime = 164 s

forces force write:
    sum of forces:
        pressure : (-1.0509631e-06 0.19721067 -2.3041004e-07)
        viscous  : (-5.255082e-08 0.0023638497 2.2139359e-08)
        porous   : (0 0 0)
    sum of moments:
        pressure : (1.7877657e-09 1.1933927e-08 -3.8857152e-08)
        viscous  : (1.4618092e-09 1.5172444e-09 2.3979846e-09)
        porous   : (0 0 0)

surfaceFieldValue pInlet write:
    average(inlet) of p = 13.68608

Time = 763

smoothSolver:  Solving for Ux, Initial residual = 0.00077427303, Final residual = 1.2589824e-05, No Iterations 2
smoothSolver:  Solving for Uy, Initial residual = 0.00025816128, Final residual = 4.5941347e-06, No Iterations 2
smoothSolver:  Solving for Uz, Initial residual = 0.00056660453, Final residual = 8.4887882e-06, No Iterations 2
GAMG:  Solving for p, Initial residual = 0.018754963, Final residual = 0.00013824168, No Iterations 3
time step continuity errors : sum local = 0.0018414311, global = -4.9178881e-06, cumulative = -9.0498745e-05
smoothSolver:  Solving for epsilon, Initial residual = 0.00048080779, Final residual = 1.3102229e-05, No Iterations 1
smoothSolver:  Solving for k, Initial residual = 0.00034316875, Final residual = 2.6283073e-05, No Iterations 1
ExecutionTime = 165.93 s  ClockTime = 166 s

forces force write:
    sum of forces:
        pressure : (-2.4968949e-07 0.1972083 -5.8471228e-07)
        viscous  : (-3.000551e-07 0.0023643495 -3.4442935e-09)
        porous   : (0 0 0)
    sum of moments:
        pressure : (-1.2570346e-08 1.3159681e-08 -7.2807599e-08)
        viscous  : (5.358642e-10 1.4150824e-09 -1.3889148e-09)
        porous   : (0 0 0)

surfaceFieldValue pInlet write:
[...]
time step continuity errors : sum local = 0.0015024518, global = -7.3083991e-06, cumulative = 7.643687e-05
smoothSolver:  Solving for epsilon, Initial residual = 0.00042126045, Final residual = 7.4077533e-06, No Iterations 1
smoothSolver:  Solving for k, Initial residual = 0.00012676679, Final residual = 4.4440559e-06, No Iterations 1
ExecutionTime = 3308.06 s  ClockTime = 3309 s

forces force write:
    sum of forces:
        pressure : (2.2734511e-07 0.19588748 8.7004134e-08)
        viscous  : (6.405079e-08 0.0023543187 -6.7024814e-08)
        porous   : (0 0 0)
    sum of moments:
        pressure : (1.6276555e-09 4.2821227e-09 -6.6817159e-09)
        viscous  : (-2.5024171e-09 1.74897e-09 3.6258426e-09)
        porous   : (0 0 0)

surfaceFieldValue pInlet write:
    average(inlet) of p = 14.123782

Time = 1986

smoothSolver:  Solving for Ux, Initial residual = 0.00020147223, Final residual = 7.5955495e-06, No Iterations 1
smoothSolver:  Solving for Uy, Initial residual = 3.3164837e-05, Final residual = 1.9348383e-06, No Iterations 1
smoothSolver:  Solving for Uz, Initial residual = 0.00016385957, Final residual = 6.1120628e-06, No Iterations 1
GAMG:  Solving for p, Initial residual = 0.018531689, Final residual = 0.00011999674, No Iterations 3
time step continuity errors : sum local = 0.0015786445, global = -4.2615426e-06, cumulative = 7.2175327e-05
smoothSolver:  Solving for epsilon, Initial residual = 0.00044249171, Final residual = 8.0371179e-06, No Iterations 1
smoothSolver:  Solving for k, Initial residual = 0.00012946129, Final residual = 4.7421444e-06, No Iterations 1
ExecutionTime = 3310.59 s  ClockTime = 3311 s

forces force write:
    sum of forces:
        pressure : (6.5068043e-07 0.1958877 -5.3470154e-08)
        viscous  : (-1.9975281e-08 0.0023543428 -1.9885971e-08)
        porous   : (0 0 0)
    sum of moments:
        pressure : (2.0390581e-10 2.7675959e-09 -3.2839076e-08)
        viscous  : (6.183043e-10 2.0809077e-10 -1.9330731e-11)
        porous   : (0 0 0)

surfaceFieldValue pInlet write:
    average(inlet) of p = 14.1195

Time = 1987

smoothSolver:  Solving for Ux, Initial residual = 0.00019577343, Final residual = 7.3517796e-06, No Iterations 1
smoothSolver:  Solving for Uy, Initial residual = 3.2435841e-05, Final residual = 1.8883402e-06, No Iterations 1
smoothSolver:  Solving for Uz, Initial residual = 0.00016109112, Final residual = 5.932758e-06, No Iterations 1
GAMG:  Solving for p, Initial residual = 0.018838659, Final residual = 0.00012833558, No Iterations 3
time step continuity errors : sum local = 0.0016846757, global = -1.1644783e-06, cumulative = 7.1010849e-05
smoothSolver:  Solving for epsilon, Initial residual = 0.00046050009, Final residual = 8.193345e-06, No Iterations 1
smoothSolver:  Solving for k, Initial residual = 0.00013126386, Final residual = 4.6863802e-06, No Iterations 1
ExecutionTime = 3313.14 s  ClockTime = 3314 s

forces force write:
    sum of forces:
        pressure : (1.1185817e-06 0.19588688 -2.3035323e-07)
        viscous  : (-1.6194313e-08 0.0023545425 -1.0087301e-07)
        porous   : (0 0 0)
    sum of moments:
        pressure : (-5.0734465e-09 8.8203702e-09 -5.5134171e-08)
        viscous  : (-2.837986e-09 -1.6713786e-09 -6.9852778e-10)
        porous   : (0 0 0)

surfaceFieldValue pInlet write:
    average(inlet) of p = 14.123693

Time = 1988

smoothSolver:  Solving for Ux, Initial residual = 0.00019277244, Final residual = 7.4774635e-06, No Iterations 1
smoothSolver:  Solving for Uy, Initial residual = 3.2680487e-05, Final residual = 1.8878466e-06, No Iterations 1
smoothSolver:  Solving for Uz, Initial residual = 0.00016441572, Final residual = 6.1768957e-06, No Iterations 1
GAMG:  Solving for p, Initial residual = 0.019291001, Final residual = 0.00014119051, No Iterations 3
time step continuity errors : sum local = 0.00185258, global = 1.4053508e-06, cumulative = 7.24162e-05
smoothSolver:  Solving for epsilon, Initial residual = 0.0004616372, Final residual = 8.3559819e-06, No Iterations 1
smoothSolver:  Solving for k, Initial residual = 0.00012992838, Final residual = 4.7814228e-06, No Iterations 1
ExecutionTime = 3315.67 s  ClockTime = 3316 s

forces force write:
    sum of forces:
        pressure : (7.9533532e-07 0.19588201 -1.4500547e-07)
        viscous  : (-1.3444509e-07 0.0023542115 -1.0724749e-08)
        porous   : (0 0 0)
    sum of moments:
        pressure : (-3.5247244e-09 3.8259099e-09 -3.0948992e-08)
        viscous  : (-5.5027187e-10 2.3709002e-09 1.0972799e-09)
        porous   : (0 0 0)

surfaceFieldValue pInlet write:
    average(inlet) of p = 14.133047

Time = 1989

smoothSolver:  Solving for Ux, Initial residual = 0.00019274813, Final residual = 7.5729063e-06, No Iterations 1
smoothSolver:  Solving for Uy, Initial residual = 3.2292396e-05, Final residual = 1.8816528e-06, No Iterations 1
smoothSolver:  Solving for Uz, Initial residual = 0.00016498609, Final residual = 6.1951739e-06, No Iterations 1
GAMG:  Solving for p, Initial residual = 0.02000051, Final residual = 0.00014917183, No Iterations 3
time step continuity errors : sum local = 0.0019578542, global = 2.9740532e-06, cumulative = 7.5390253e-05
smoothSolver:  Solving for epsilon, Initial residual = 0.00044850247, Final residual = 8.2350725e-06, No Iterations 1
smoothSolver:  Solving for k, Initial residual = 0.00012719894, Final residual = 4.79311e-06, No Iterations 1
ExecutionTime = 3318.22 s  ClockTime = 3319 s

forces force write:
    sum of forces:
        pressure : (1.1373803e-07 0.19588336 -3.8213339e-07)
        viscous  : (2.3145205e-08 0.0023547763 2.0260484e-07)
        porous   : (0 0 0)
    sum of moments:
        pressure : (-9.4041308e-09 -3.3850015e-10 8.0230052e-09)
        viscous  : (5.2873063e-09 9.5494981e-10 1.9006499e-09)
        porous   : (0 0 0)

surfaceFieldValue pInlet write:
    average(inlet) of p = 14.144931

Time = 1990

smoothSolver:  Solving for Ux, Initial residual = 0.00019008895, Final residual = 7.6566454e-06, No Iterations 1
smoothSolver:  Solving for Uy, Initial residual = 3.2375211e-05, Final residual = 1.8748651e-06, No Iterations 1
smoothSolver:  Solving for Uz, Initial residual = 0.00016257703, Final residual = 6.2807152e-06, No Iterations 1
GAMG:  Solving for p, Initial residual = 0.020417376, Final residual = 0.00014156376, No Iterations 3
time step continuity errors : sum local = 0.0018589202, global = 4.0640693e-06, cumulative = 7.9454322e-05
smoothSolver:  Solving for epsilon, Initial residual = 0.00041930419, Final residual = 7.6275176e-06, No Iterations 1
smoothSolver:  Solving for k, Initial residual = 0.00012325779, Final residual = 4.6724152e-06, No Iterations 1
ExecutionTime = 3320.76 s  ClockTime = 3321 s

forces force write:
    sum of forces:
        pressure : (5.7087328e-07 0.19588231 -4.3216063e-07)
        viscous  : (1.1276937e-07 0.0023544964 -3.8003777e-08)
        porous   : (0 0 0)
    sum of moments:
        pressure : (-8.8362942e-09 4.524828e-09 -3.6327594e-08)
        viscous  : (-1.0398637e-09 -1.3667699e-09 -2.184575e-09)
        porous   : (0 0 0)

surfaceFieldValue pInlet write:
    average(inlet) of p = 14.156479

Time = 1991

smoothSolver:  Solving for Ux, Initial residual = 0.00019118126, Final residual = 7.7843385e-06, No Iterations 1
smoothSolver:  Solving for Uy, Initial residual = 3.2507689e-05, Final residual = 1.8978473e-06, No Iterations 1
smoothSolver:  Solving for Uz, Initial residual = 0.00016421026, Final residual = 6.4710782e-06, No Iterations 1
GAMG:  Solving for p, Initial residual = 0.020018572, Final residual = 0.00013166196, No Iterations 3
time step continuity errors : sum local = 0.0017299699, global = 4.0863932e-06, cumulative = 8.3540715e-05
smoothSolver:  Solving for epsilon, Initial residual = 0.00040345823, Final residual = 7.2304156e-06, No Iterations 1
smoothSolver:  Solving for k, Initial residual = 0.00012087609, Final residual = 4.6549271e-06, No Iterations 1
ExecutionTime = 3323.3 s  ClockTime = 3324 s

forces force write:
    sum of forces:
        pressure : (2.5339754e-07 0.19587994 -5.8470553e-08)
        viscous  : (-1.141708e-07 0.002354281 -1.9078691e-07)
        porous   : (0 0 0)
    sum of moments:
        pressure : (-2.4143643e-09 4.7947144e-09 -6.9949639e-09)
        viscous  : (-6.0347469e-09 1.4827946e-09 2.8200601e-09)
        porous   : (0 0 0)

surfaceFieldValue pInlet write:
    average(inlet) of p = 14.167703

Time = 1992

smoothSolver:  Solving for Ux, Initial residual = 0.00018704198, Final residual = 7.4345687e-06, No Iterations 1
smoothSolver:  Solving for Uy, Initial residual = 3.2184733e-05, Final residual = 1.8760563e-06, No Iterations 1
smoothSolver:  Solving for Uz, Initial residual = 0.00016136555, Final residual = 6.257497e-06, No Iterations 1
GAMG:  Solving for p, Initial residual = 0.019536644, Final residual = 0.00012679455, No Iterations 3
time step continuity errors : sum local = 0.0016673492, global = 3.1011551e-06, cumulative = 8.6641871e-05
smoothSolver:  Solving for epsilon, Initial residual = 0.00038441519, Final residual = 6.6216309e-06, No Iterations 1
smoothSolver:  Solving for k, Initial residual = 0.00011823769, Final residual = 4.3463097e-06, No Iterations 1
ExecutionTime = 3325.83 s  ClockTime = 3326 s

forces force write:
    sum of forces:
        pressure : (-1.0517453e-07 0.19587851 -2.0517494e-07)
        viscous  : (3.5705782e-08 0.002354259 4.0589805e-08)
        porous   : (0 0 0)
    sum of moments:
        pressure : (-1.725904e-09 2.5540469e-09 1.6135404e-08)
        viscous  : (2.5714644e-09 8.3960704e-10 1.1256607e-09)
        porous   : (0 0 0)

surfaceFieldValue pInlet write:
    average(inlet) of p = 14.178533

Time = 1993

smoothSolver:  Solving for Ux, Initial residual = 0.00018723385, Final residual = 7.5797809e-06, No Iterations 1
smoothSolver:  Solving for Uy, Initial residual = 3.4276369e-05, Final residual = 2.0399831e-06, No Iterations 1
smoothSolver:  Solving for Uz, Initial residual = 0.00015344821, Final residual = 6.1216214e-06, No Iterations 1
GAMG:  Solving for p, Initial residual = 0.019065778, Final residual = 0.00012438917, No Iterations 3
time step continuity errors : sum local = 0.0016370622, global = 1.2809522e-06, cumulative = 8.7922823e-05
smoothSolver:  Solving for epsilon, Initial residual = 0.00037977424, Final residual = 6.6269604e-06, No Iterations 1
smoothSolver:  Solving for k, Initial residual = 0.00011725359, Final residual = 4.3054227e-06, No Iterations 1
ExecutionTime = 3328.37 s  ClockTime = 3329 s

forces force write:
    sum of forces:
        pressure : (4.9633556e-07 0.19587939 -4.3986604e-07)
        viscous  : (2.8446492e-08 0.0023546114 -2.1971764e-08)
        porous   : (0 0 0)
    sum of moments:
        pressure : (-1.2473718e-08 2.7014754e-09 -3.0900409e-08)
        viscous  : (-5.0862472e-10 9.6402209e-10 -2.3342451e-09)
        porous   : (0 0 0)

surfaceFieldValue pInlet write:
    average(inlet) of p = 14.192016

Time = 1994

smoothSolver:  Solving for Ux, Initial residual = 0.00018708035, Final residual = 7.2494088e-06, No Iterations 1
smoothSolver:  Solving for Uy, Initial residual = 3.2088089e-05, Final residual = 1.8487161e-06, No Iterations 1
smoothSolver:  Solving for Uz, Initial residual = 0.00015058866, Final residual = 5.8828521e-06, No Iterations 1
GAMG:  Solving for p, Initial residual = 0.01811513, Final residual = 0.000121937, No Iterations 3
time step continuity errors : sum local = 0.0016082516, global = -1.1533627e-06, cumulative = 8.676946e-05
smoothSolver:  Solving for epsilon, Initial residual = 0.0003933022, Final residual = 6.8208753e-06, No Iterations 1
smoothSolver:  Solving for k, Initial residual = 0.00011730548, Final residual = 4.1771066e-06, No Iterations 1
ExecutionTime = 3330.9 s  ClockTime = 3332 s

forces force write:
    sum of forces:
        pressure : (-8.1434393e-08 0.19587865 -4.2443603e-07)
        viscous  : (-1.0615504e-07 0.0023542129 1.5776846e-07)
        porous   : (0 0 0)
    sum of moments:
        pressure : (-7.3172611e-09 2.385215e-09 1.0617763e-09)
        viscous  : (3.4334442e-09 2.1887499e-09 1.3312088e-09)
        porous   : (0 0 0)

surfaceFieldValue pInlet write:
    average(inlet) of p = 14.20323

Time = 1995

smoothSolver:  Solving for Ux, Initial residual = 0.00018300222, Final residual = 7.1103939e-06, No Iterations 1
smoothSolver:  Solving for Uy, Initial residual = 3.1618466e-05, Final residual = 1.8450473e-06, No Iterations 1
smoothSolver:  Solving for Uz, Initial residual = 0.00014368452, Final residual = 5.6243141e-06, No Iterations 1
GAMG:  Solving for p, Initial residual = 0.017464412, Final residual = 0.00012276928, No Iterations 3
time step continuity errors : sum local = 0.001622802, global = -3.858642e-06, cumulative = 8.2910818e-05
smoothSolver:  Solving for epsilon, Initial residual = 0.00040421361, Final residual = 7.0952129e-06, No Iterations 1
smoothSolver:  Solving for k, Initial residual = 0.00011354483, Final residual = 4.0908716e-06, No Iterations 1
ExecutionTime = 3333.43 s  ClockTime = 3334 s

forces force write:
    sum of forces:
        pressure : (-4.2276196e-07 0.19588172 -3.6163923e-07)
        viscous  : (7.791429e-09 0.0023545461 -6.0039283e-08)
        porous   : (0 0 0)
    sum of moments:
        pressure : (-7.8248245e-09 1.2020843e-09 2.9039876e-08)
        viscous  : (-2.1628008e-09 -2.1645349e-09 2.943836e-09)
        porous   : (0 0 0)

surfaceFieldValue pInlet write:
    average(inlet) of p = 14.212772

Time = 1996

smoothSolver:  Solving for Ux, Initial residual = 0.00017726868, Final residual = 6.9616027e-06, No Iterations 1
smoothSolver:  Solving for Uy, Initial residual = 3.1188266e-05, Final residual = 1.8266584e-06, No Iterations 1
smoothSolver:  Solving for Uz, Initial residual = 0.00013652489, Final residual = 5.4662536e-06, No Iterations 1
GAMG:  Solving for p, Initial residual = 0.017314571, Final residual = 0.00012474963, No Iterations 3
time step continuity errors : sum local = 0.0016526264, global = -6.6667907e-06, cumulative = 7.6244027e-05
smoothSolver:  Solving for epsilon, Initial residual = 0.00040713801, Final residual = 6.8234245e-06, No Iterations 1
smoothSolver:  Solving for k, Initial residual = 0.00011487491, Final residual = 4.0597454e-06, No Iterations 1
ExecutionTime = 3335.98 s  ClockTime = 3337 s

forces force write:
    sum of forces:
        pressure : (8.4306988e-07 0.19588124 -1.9020348e-07)
        viscous  : (3.1795505e-08 0.0023543268 -7.6070769e-08)
        porous   : (0 0 0)
    sum of moments:
        pressure : (-4.1396105e-09 7.9904509e-09 -5.7579675e-08)
        viscous  : (-1.3586234e-09 -2.097e-09 -4.5489939e-09)
        porous   : (0 0 0)

surfaceFieldValue pInlet write:
    average(inlet) of p = 14.219927

Time = 1997

smoothSolver:  Solving for Ux, Initial residual = 0.00017681932, Final residual = 6.9309438e-06, No Iterations 1
smoothSolver:  Solving for Uy, Initial residual = 3.1499959e-05, Final residual = 1.841645e-06, No Iterations 1
smoothSolver:  Solving for Uz, Initial residual = 0.00013711425, Final residual = 5.4763593e-06, No Iterations 1
GAMG:  Solving for p, Initial residual = 0.016868952, Final residual = 0.00012899264, No Iterations 3
time step continuity errors : sum local = 0.0017115561, global = -9.4435021e-06, cumulative = 6.6800525e-05
smoothSolver:  Solving for epsilon, Initial residual = 0.00042199165, Final residual = 6.6129687e-06, No Iterations 1
smoothSolver:  Solving for k, Initial residual = 0.00011452276, Final residual = 4.0353142e-06, No Iterations 1
ExecutionTime = 3338.52 s  ClockTime = 3339 s

forces force write:
    sum of forces:
        pressure : (-1.3093415e-07 0.19588157 7.413468e-08)
        viscous  : (1.1828973e-08 0.0023543277 -2.9103878e-08)
        porous   : (0 0 0)
    sum of moments:
        pressure : (5.1216701e-09 6.8727484e-09 5.2781945e-09)
        viscous  : (-2.7798303e-10 2.6427235e-09 3.5785743e-09)
        porous   : (0 0 0)

surfaceFieldValue pInlet write:
    average(inlet) of p = 14.225186

Time = 1998

smoothSolver:  Solving for Ux, Initial residual = 0.00017498829, Final residual = 6.7821154e-06, No Iterations 1
smoothSolver:  Solving for Uy, Initial residual = 3.1263925e-05, Final residual = 1.8452662e-06, No Iterations 1
smoothSolver:  Solving for Uz, Initial residual = 0.00013695821, Final residual = 5.3957001e-06, No Iterations 1
GAMG:  Solving for p, Initial residual = 0.017236594, Final residual = 0.00012836905, No Iterations 3
time step continuity errors : sum local = 0.0017056661, global = -1.1883906e-05, cumulative = 5.4916619e-05
smoothSolver:  Solving for epsilon, Initial residual = 0.00041843417, Final residual = 6.1579436e-06, No Iterations 1
smoothSolver:  Solving for k, Initial residual = 0.00011484907, Final residual = 3.951288e-06, No Iterations 1
ExecutionTime = 3341.06 s  ClockTime = 3342 s

forces force write:
    sum of forces:
        pressure : (-1.5342726e-07 0.19588464 -7.2720294e-08)
        viscous  : (-9.4485935e-08 0.0023545827 5.5368815e-08)
        porous   : (0 0 0)
    sum of moments:
        pressure : (3.8373618e-10 1.6503731e-09 5.6670032e-09)
        viscous  : (2.4029523e-09 9.4239744e-10 1.490776e-09)
        porous   : (0 0 0)

surfaceFieldValue pInlet write:
    average(inlet) of p = 14.227177

Time = 1999

smoothSolver:  Solving for Ux, Initial residual = 0.00017338002, Final residual = 6.8542688e-06, No Iterations 1
smoothSolver:  Solving for Uy, Initial residual = 3.1437754e-05, Final residual = 1.8321892e-06, No Iterations 1
smoothSolver:  Solving for Uz, Initial residual = 0.00013770748, Final residual = 5.4560173e-06, No Iterations 1
GAMG:  Solving for p, Initial residual = 0.017568162, Final residual = 0.0001193401, No Iterations 3
time step continuity errors : sum local = 0.0015876621, global = -1.3630637e-05, cumulative = 4.1285982e-05
smoothSolver:  Solving for epsilon, Initial residual = 0.00042284353, Final residual = 6.1913918e-06, No Iterations 1
smoothSolver:  Solving for k, Initial residual = 0.00011513604, Final residual = 3.9811024e-06, No Iterations 1
ExecutionTime = 3343.6 s  ClockTime = 3344 s

forces force write:
    sum of forces:
        pressure : (4.980514e-07 0.19588684 -1.6210089e-07)
        viscous  : (-3.5913539e-08 0.0023547211 9.4629296e-08)
        porous   : (0 0 0)
    sum of moments:
        pressure : (-4.7068786e-09 7.4958369e-09 -3.2036935e-08)
        viscous  : (1.428958e-09 -3.077816e-09 -1.6295834e-09)
        porous   : (0 0 0)

surfaceFieldValue pInlet write:
    average(inlet) of p = 14.224748

Time = 2000

smoothSolver:  Solving for Ux, Initial residual = 0.00017710403, Final residual = 6.9214726e-06, No Iterations 1
smoothSolver:  Solving for Uy, Initial residual = 3.1170438e-05, Final residual = 1.8200461e-06, No Iterations 1
smoothSolver:  Solving for Uz, Initial residual = 0.00014232502, Final residual = 5.5871029e-06, No Iterations 1
GAMG:  Solving for p, Initial residual = 0.018254083, Final residual = 0.00010974461, No Iterations 3
time step continuity errors : sum local = 0.0014618092, global = -1.4495218e-05, cumulative = 2.6790764e-05
smoothSolver:  Solving for epsilon, Initial residual = 0.00042058722, Final residual = 6.3007797e-06, No Iterations 1
smoothSolver:  Solving for k, Initial residual = 0.00011570425, Final residual = 3.9701033e-06, No Iterations 1
ExecutionTime = 3346.14 s  ClockTime = 3347 s

forces force write:
    sum of forces:
        pressure : (2.8347076e-07 0.19588412 1.7300084e-07)
        viscous  : (3.1598047e-08 0.0023541032 -5.733501e-08)
        porous   : (0 0 0)
    sum of moments:
        pressure : (4.5282966e-09 3.9666484e-09 -9.5581734e-09)
        viscous  : (-2.350563e-09 7.0531004e-10 1.8942661e-09)
        porous   : (0 0 0)

surfaceFieldValue pInlet write:
    average(inlet) of p = 14.215847

End

Finalising parallel run
