Invalid MIT-MAGIC-COOKIE-1 key/*---------------------------------------------------------------------------*\
  =========                 |
  \\      /  F ield         | OpenFOAM: The Open Source CFD Toolbox
   \\    /   O peration     | Website:  https://openfoam.org
    \\  /    A nd           | Version:  8
     \\/     M anipulation  |
\*---------------------------------------------------------------------------*/
Build  : 8
Exec   : snappyHexMesh -parallel
Date   : Nov 15 2020
Time   : 17:33:23
Host   : "edo20-HP-Pavilion-Notebook"
PID    : 79509
I/O    : uncollated
Case   : /home/edo20/Piscaglia/Shared_docker_folder/Shared_CTTP/testEdo/3D/combustorSimple
nProcs : 4
Slaves : 
3
(
"edo20-HP-Pavilion-Notebook.79510"
"edo20-HP-Pavilion-Notebook.79511"
"edo20-HP-Pavilion-Notebook.79512"
)

Pstream initialized with:
    floatTransfer      : 0
    nProcsSimpleSum    : 0
    commsType          : nonBlocking
    polling iterations : 0
sigFpe : Enabling floating point exception trapping (FOAM_SIGFPE).
fileModificationChecking : Monitoring run-time modified files using timeStampMaster (fileModificationSkew 10)
allowSystemOperations : Allowing user-supplied system call operations

// * * * * * * * * * * * * * * * * * * * * * * * * * * * * * * * * * * * * * //
Create time

Create mesh for time = 0

Read mesh in = 0.07 s

Overall mesh bounding box  : (-0.12 -0.3 -0.12) (0.12 0.5 0.12)
Relative tolerance         : 1e-06
Absolute matching distance : 8.6902244e-07

Reading refinement surfaces.
Read refinement surfaces in = 0.01 s

Reading refinement shells.
Refinement level 3 for all cells inside refinementBoxSplitter
Refinement level 2 for all cells inside refinementBoxFront
Refinement level 2 for all cells inside refinementBoxRear
Read refinement shells in = 0 s

Setting refinement level of surface to be consistent with shells.
Checked shell refinement in = 0 s

Reading features.
Read edgeMesh combustor.eMesh
    points      : 464
    edges       : 468
    boundingBox : (-0.12 -0.30000001 -0.12) (0.12 0.5 0.12)

Refinement level according to distance to "combustor.eMesh" (464 points, 468 edges).
    level 3 for all cells within 0 metre.
Read features in = 0 s


Determining initial surface intersections
-----------------------------------------

Edge intersection testing:
    Number of edges             : 109248
    Number of edges to retest   : 109248
    Number of intersected edges : 76
Calculated surface intersections in = 0.09 s

Initial mesh : cells:35840  faces:109248  points:37665
Cells per refinement level:
    0	35840

Adding patches for surface regions
----------------------------------

Patch Type                Region                        
----- ----                ------                        
combustor:

3     wall                splitterFront                 
4     wall                splitterRight                 
5     wall                splitterRear                  
6     wall                splitterLeft                  
7     wall                splitterBottom                
[2] Selecting decompositionMethod scotch
8     wall                splitterTop                   
0     wall                outerWalls                    

Added patches in = 0.04 s

[0] Selecting decompositionMethod scotch
[1] Selecting decompositionMethod scotch
Layer thickness specified as first layer and expansion ratio.

Refinement phase
----------------

[3] Selecting decompositionMethod scotch
Found point (0 0.2 0) in cell 603 on processor 3

Feature refinement iteration 0
------------------------------

Marked for refinement due to explicit features             : 48 cells.
Determined cells to refine in = 0.08 s
Selected for feature refinement : 48 cells (out of 35840)
Edge intersection testing:
    Number of edges             : 110484
    Number of edges to retest   : 1916
    Number of intersected edges : 328
Refined mesh in = 0.08 s
After refinement feature refinement iteration 0 : cells:36176  faces:110484  points:38257
Cells per refinement level:
    0	35792
    1	384
Skipping balancing since max unbalance 0.027863777 is less than allowable 0.1

Feature refinement iteration 1
------------------------------

Marked for refinement due to explicit features             : 151 cells.
Determined cells to refine in = 0.08 s
Selected for feature refinement : 249 cells (out of 36176)
Edge intersection testing:
    Number of edges             : 116739
    Number of edges to retest   : 8697
    Number of intersected edges : 963
Refined mesh in = 0.1 s
After refinement feature refinement iteration 1 : cells:37919  faces:116739  points:41115
Cells per refinement level:
    0	35694
    1	1017
    2	1208
Balanced mesh in = 0.34 s
After balancing feature refinement iteration 1 : cells:37919  faces:116739  points:41115
Cells per refinement level:
    0	35694
    1	1017
    2	1208

Feature refinement iteration 2
------------------------------

Marked for refinement due to explicit features             : 270 cells.
Determined cells to refine in = 0.11 s
Selected for feature refinement : 466 cells (out of 37919)
Edge intersection testing:
    Number of edges             : 128223
    Number of edges to retest   : 18727
    Number of intersected edges : 2081
Refined mesh in = 0.11 s
After refinement feature refinement iteration 2 : cells:41181  faces:128223  points:46282
Cells per refinement level:
    0	35643
    1	1239
    2	2467
    3	1832
Balanced mesh in = 0.31 s
After balancing feature refinement iteration 2 : cells:41181  faces:128223  points:46282
Cells per refinement level:
    0	35643
    1	1239
    2	2467
    3	1832

Feature refinement iteration 3
------------------------------

Marked for refinement due to explicit features             : 116 cells.
Determined cells to refine in = 0.17 s
Selected for feature refinement : 155 cells (out of 41181)
Edge intersection testing:
    Number of edges             : 131982
    Number of edges to retest   : 9581
    Number of intersected edges : 2300
Refined mesh in = 0.12 s
After refinement feature refinement iteration 3 : cells:42266  faces:131982  points:47905
Cells per refinement level:
    0	35631
    1	1308
    2	2567
    3	2760
Skipping balancing since max unbalance 0.085557448 is less than allowable 0.1

Feature refinement iteration 4
------------------------------

Marked for refinement due to explicit features             : 26 cells.
Determined cells to refine in = 0.18 s
Selected for feature refinement : 34 cells (out of 42266)
Edge intersection testing:
    Number of edges             : 132741
    Number of edges to retest   : 2572
    Number of intersected edges : 2374
Refined mesh in = 0.1 s
After refinement feature refinement iteration 4 : cells:42504  faces:132741  points:48190
Cells per refinement level:
    0	35629
    1	1318
    2	2589
    3	2968
Balanced mesh in = 0.36 s
After balancing feature refinement iteration 4 : cells:42504  faces:132741  points:48190
Cells per refinement level:
    0	35629
    1	1318
    2	2589
    3	2968

Feature refinement iteration 5
------------------------------

Marked for refinement due to explicit features             : 1 cells.
Determined cells to refine in = 0.19 s
Selected for feature refinement : 2 cells (out of 42504)
Edge intersection testing:
    Number of edges             : 132786
    Number of edges to retest   : 178
    Number of intersected edges : 2374
Refined mesh in = 0.1 s
After refinement feature refinement iteration 5 : cells:42518  faces:132786  points:48207
Cells per refinement level:
    0	35629
    1	1317
    2	2596
    3	2976
Skipping balancing since max unbalance 0.010254963 is less than allowable 0.1

Feature refinement iteration 6
------------------------------

Marked for refinement due to explicit features             : 0 cells.
Determined cells to refine in = 0.18 s
Selected for feature refinement : 0 cells (out of 42518)
Stopping refining since too few cells selected.


Surface refinement iteration 0
------------------------------

Marked for refinement due to surface intersection          : 0 cells.
Determined cells to refine in = 0 s
Selected for refinement : 0 cells (out of 42518)
Stopping refining since too few cells selected.


Removing mesh beyond surface intersections
------------------------------------------

Found point (0 0.2 0) in global region 0 out of 2 regions.
Keeping all cells in region 0 containing point (0 0.2 0)
Selected for keeping : 42457 cells.
Edge intersection testing:
    Number of edges             : 132760
    Number of edges to retest   : 314
    Number of intersected edges : 2374

Shell refinement iteration 0
----------------------------

Marked for refinement due to distance to explicit features : 0 cells.
Marked for refinement due to refinement shells             : 7142 cells.
Determined cells to refine in = 0.27 s
Selected for internal refinement : 7158 cells (out of 42457)
Edge intersection testing:
    Number of edges             : 289270
    Number of edges to retest   : 196956
    Number of intersected edges : 4552
Refined mesh in = 0.5 s
After refinement shell refinement iteration 0 : cells:92563  faces:289270  points:104359
Cells per refinement level:
    0	32352
    1	26216
    2	10536
    3	23459
Balanced mesh in = 0.95 s
After balancing shell refinement iteration 0 : cells:92563  faces:289270  points:104359
Cells per refinement level:
    0	32352
    1	26216
    2	10536
    3	23459

Shell refinement iteration 1
----------------------------

Marked for refinement due to distance to explicit features : 0 cells.
Marked for refinement due to refinement shells             : 33219 cells.
Determined cells to refine in = 0.03 s
Selected for internal refinement : 34004 cells (out of 92563)
Edge intersection testing:
    Number of edges             : 1016371
    Number of edges to retest   : 886214
    Number of intersected edges : 6688
Refined mesh in = 1.43 s
After refinement shell refinement iteration 1 : cells:330591  faces:1016371  points:355396
Cells per refinement level:
    0	31526
    1	10182
    2	181136
    3	107747
Balanced mesh in = 2.64 s
After balancing shell refinement iteration 1 : cells:330591  faces:1016371  points:355396
Cells per refinement level:
    0	31526
    1	10182
    2	181136
    3	107747

Shell refinement iteration 2
----------------------------

Marked for refinement due to distance to explicit features : 0 cells.
Marked for refinement due to refinement shells             : 166136 cells.
Determined cells to refine in = 0.11 s
Selected for internal refinement : 171484 cells (out of 330591)
Edge intersection testing:
    Number of edges             : 4651993
    Number of edges to retest   : 4263698
    Number of intersected edges : 6688
Refined mesh in = 5.03 s
After refinement shell refinement iteration 2 : cells:1530979  faces:4651993  points:1590341
Cells per refinement level:
    0	30605
    1	12291
    2	57904
    3	1430179
Balanced mesh in = 11.92 s
After balancing shell refinement iteration 2 : cells:1530979  faces:4651993  points:1590341
Cells per refinement level:
    0	30605
    1	12291
    2	57904
    3	1430179

Shell refinement iteration 3
----------------------------

Marked for refinement due to distance to explicit features : 0 cells.
Marked for refinement due to refinement shells             : 9331 cells.
Determined cells to refine in = 0.31 s
Selected for internal refinement : 10375 cells (out of 1530979)
Edge intersection testing:
    Number of edges             : 4867108
    Number of edges to retest   : 488837
    Number of intersected edges : 6688
Refined mesh in = 3 s
After refinement shell refinement iteration 3 : cells:1603604  faces:4867108  points:1660268
Cells per refinement level:
    0	30385
    1	13226
    2	55174
    3	1504819
Skipping balancing since max unbalance 0.013571929 is less than allowable 0.1

Shell refinement iteration 4
----------------------------

Marked for refinement due to distance to explicit features : 0 cells.
Marked for refinement due to refinement shells             : 22 cells.
Determined cells to refine in = 0.26 s
Selected for internal refinement : 31 cells (out of 1603604)
Edge intersection testing:
    Number of edges             : 4867741
    Number of edges to retest   : 2332
    Number of intersected edges : 6688
Refined mesh in = 2.72 s
After refinement shell refinement iteration 4 : cells:1603821  faces:4867741  points:1660467
Cells per refinement level:
    0	30384
    1	13226
    2	55216
    3	1504995
Skipping balancing since max unbalance 0.013442905 is less than allowable 0.1

Shell refinement iteration 5
----------------------------

Marked for refinement due to distance to explicit features : 0 cells.
Marked for refinement due to refinement shells             : 0 cells.
Determined cells to refine in = 0.51 s
Selected for internal refinement : 0 cells (out of 1603821)
Stopping refining since too few cells selected.


Dangling coarse cells refinement iteration 0
--------------------------------------------

Determined cells to refine in = 0.03 s
Selected for refinement : 3 cells (out of 1603821)
Edge intersection testing:
    Number of edges             : 4867786
    Number of edges to retest   : 363
    Number of intersected edges : 6688
Refined mesh in = 3.03 s
After refinement coarse cell refinement iteration 0 : cells:1603842  faces:4867786  points:1660473
Cells per refinement level:
    0	30384
    1	13223
    2	55240
    3	1504995
Skipping balancing since max unbalance 0.013455208 is less than allowable 0.1

Dangling coarse cells refinement iteration 1
--------------------------------------------

Determined cells to refine in = 0.13 s
Selected for refinement : 0 cells (out of 1603842)
Stopping refining since too few cells selected.


Dangling coarse cells refinement iteration 0
--------------------------------------------

Determined cells to refine in = 0.04 s
Selected for refinement : 0 cells (out of 1603842)
Stopping refining since too few cells selected.


Splitting mesh at surface intersections
---------------------------------------

Introducing baffles for 6688 faces that are intersected by the surface.

Edge intersection testing:
    Number of edges             : 4874474
    Number of edges to retest   : 39096
    Number of intersected edges : 13376
Created baffles in = 2.22 s


After introducing baffles : cells:1603842  faces:4874474  points:1660473
Cells per refinement level:
    0	30384
    1	13223
    2	55240
    3	1504995

Introducing baffles to block off problem cells
----------------------------------------------

markFacesOnProblemCells : marked 564 additional internal faces to be converted into baffles.
Analyzed problem cells in = 1.53 s


Introducing baffles to delete problem cells.

Edge intersection testing:
    Number of edges             : 4875038
    Number of edges to retest   : 2886
    Number of intersected edges : 13376
Created baffles in = 2.37 s


After introducing baffles : cells:1603842  faces:4875038  points:1660473
Cells per refinement level:
    0	30384
    1	13223
    2	55240
    3	1504995

Remove unreachable sections of mesh
-----------------------------------

Keeping all cells in region 0 containing point (0 0.2 0)
Selected for keeping : 1591839 cells.
Edge intersection testing:
    Number of edges             : 4834736
    Number of edges to retest   : 0
    Number of intersected edges : 6688
Split mesh in = 13.72 s


After subsetting : cells:1591839  faces:4834736  points:1651440
Cells per refinement level:
    0	30384
    1	13223
    2	55240
    3	1492992

Handling cells with snap problems
---------------------------------

Introducing baffles for 6688 faces that are intersected by the surface.

Edge intersection testing:
    Number of edges             : 4834736
    Number of edges to retest   : 20604
    Number of intersected edges : 6688
Created baffles in = 2.12 s


After introducing baffles : cells:1591839  faces:4834736  points:1651440
Cells per refinement level:
    0	30384
    1	13223
    2	55240
    3	1492992

Introducing baffles to block off problem cells
----------------------------------------------

markFacesOnProblemCells : marked 0 additional internal faces to be converted into baffles.
Analyzed problem cells in = 1.53 s


Introducing baffles to delete problem cells.

Edge intersection testing:
    Number of edges             : 4834736
    Number of edges to retest   : 0
    Number of intersected edges : 6688
Created baffles in = 1.93 s


After introducing baffles : cells:1591839  faces:4834736  points:1651440
Cells per refinement level:
    0	30384
    1	13223
    2	55240
    3	1492992

Remove unreachable sections of mesh
-----------------------------------

Keeping all cells in region 0 containing point (0 0.2 0)
Selected for keeping : 1591839 cells.
Edge intersection testing:
    Number of edges             : 4834736
    Number of edges to retest   : 0
    Number of intersected edges : 6688
Split mesh in = 12.66 s


After subsetting : cells:1591839  faces:4834736  points:1651440
Cells per refinement level:
    0	30384
    1	13223
    2	55240
    3	1492992

Merge free-standing baffles
---------------------------

freeStandingBaffles : detected 0 free-standing baffles out of 0

Detected free-standing baffles : 0
Merged free-standing baffles in = 0.71 s


dupNonManifoldPoints : Found : 0 non-manifold points (out of 1675478)
Edge intersection testing:
    Number of edges             : 4834736
    Number of edges to retest   : 0
    Number of intersected edges : 6688
Detected unsplittable baffles : 0

Merge refined boundary faces
----------------------------

Merging 0 sets of faces.

No faces merged ...

Merging all points on surface that
- are used by only two boundary faces and
- make an angle with a cosine of more than 0.70710678.

No straight edges simplified and no points removed ...

Doing final balancing
---------------------

Found 0 zoned faces to keep together.
Found 0 separated coupled faces to keep together.
Refined mesh : cells:1591839  faces:4834736  points:1651440
Cells per refinement level:
    0	30384
    1	13223
    2	55240
    3	1492992
Writing mesh to time 1
Wrote mesh in = 17.55 s.
Mesh refined in = 91.86 s.

Morphing phase
--------------


Snapping to features in 20 iterations ...
Constructing mesh displacer ...
Using mesh parameters 
{
    maxNonOrtho     65;
    maxBoundarySkewness 20;
    maxInternalSkewness 4;
    maxConcave      80;
    minVol          1e-13;
    minTetQuality   1e-15;
    minArea         -1;
    minTwist        0.02;
    minDeterminant  0.001;
    minFaceWeight   0.05;
    minVolRatio     0.01;
    minTriangleTwist -1;
    nSmoothScale    4;
    errorReduction  0.75;
    relaxed
    {
        maxNonOrtho     75;
        maxBoundarySkewness 25;
        maxInternalSkewness 8;
    }
}


Checking initial mesh ...
Checking faces in error :
    non-orthogonality > 65  degrees                        : 0
    faces with face pyramid volume < 1e-13                 : 0
    faces with face-decomposition tet quality < 1e-15      : 0
    faces with concavity > 80  degrees                     : 0
    faces with skewness > 4   (internal) or 20  (boundary) : 0
    faces with interpolation weights (0..1)  < 0.05        : 0
    faces with volume ratio of neighbour cells < 0.01      : 0
    faces with face twist < 0.02                           : 0
    faces on cells with determinant < 0.001                : 0
Detected 0 illegal faces (concave, zero area or negative cell pyramid volume)
Checked initial mesh in = 2.36 s


Smoothing patch points ...
Smoothing iteration 0
Found 0 non-manifold point(s).

Scaling iteration 0
Moving mesh using displacement scaling : min:1  max:1
Checking faces in error :
    non-orthogonality > 65  degrees                        : 0
    faces with face pyramid volume < 1e-13                 : 0
    faces with face-decomposition tet quality < 1e-15      : 0
    faces with concavity > 80  degrees                     : 0
    faces with skewness > 4   (internal) or 20  (boundary) : 0
    faces with interpolation weights (0..1)  < 0.05        : 0
    faces with volume ratio of neighbour cells < 0.01      : 0
    faces with face twist < 0.02                           : 0
    faces on cells with determinant < 0.001                : 0
Successfully moved mesh

Smoothing iteration 1
Found 0 non-manifold point(s).

Scaling iteration 0
Moving mesh using displacement scaling : min:1  max:1
Checking faces in error :
    non-orthogonality > 65  degrees                        : 5184
    faces with face pyramid volume < 1e-13                 : 5184
    faces with face-decomposition tet quality < 1e-15      : 0
    faces with concavity > 80  degrees                     : 0
    faces with skewness > 4   (internal) or 20  (boundary) : 0
    faces with interpolation weights (0..1)  < 0.05        : 0
    faces with volume ratio of neighbour cells < 0.01      : 0
    faces with face twist < 0.02                           : 0
    faces on cells with determinant < 0.001                : 0

Scaling iteration 1
Moving mesh using displacement scaling : min:0.75  max:1
Checking faces in error :
    non-orthogonality > 65  degrees                        : 5184
    faces with face pyramid volume < 1e-13                 : 5184
    faces with face-decomposition tet quality < 1e-15      : 0
    faces with concavity > 80  degrees                     : 0
    faces with skewness > 4   (internal) or 20  (boundary) : 0
    faces with interpolation weights (0..1)  < 0.05        : 0
    faces with volume ratio of neighbour cells < 0.01      : 0
    faces with face twist < 0.02                           : 0
    faces on cells with determinant < 0.001                : 0

Scaling iteration 2
Moving mesh using displacement scaling : min:0.5625  max:1
Checking faces in error :
    non-orthogonality > 65  degrees                        : 2955
    faces with face pyramid volume < 1e-13                 : 1872
    faces with face-decomposition tet quality < 1e-15      : 17
    faces with concavity > 80  degrees                     : 0
    faces with skewness > 4   (internal) or 20  (boundary) : 0
    faces with interpolation weights (0..1)  < 0.05        : 1218
    faces with volume ratio of neighbour cells < 0.01      : 0
    faces with face twist < 0.02                           : 32
    faces on cells with determinant < 0.001                : 1932

Scaling iteration 3
Moving mesh using displacement scaling : min:0.421875  max:1
Checking faces in error :
    non-orthogonality > 65  degrees                        : 1572
    faces with face pyramid volume < 1e-13                 : 16
    faces with face-decomposition tet quality < 1e-15      : 668
    faces with concavity > 80  degrees                     : 0
    faces with skewness > 4   (internal) or 20  (boundary) : 0
    faces with interpolation weights (0..1)  < 0.05        : 0
    faces with volume ratio of neighbour cells < 0.01      : 0
    faces with face twist < 0.02                           : 640
    faces on cells with determinant < 0.001                : 16

Scaling iteration 4
Moving mesh using displacement scaling : min:0.31640625  max:1
Checking faces in error :
    non-orthogonality > 65  degrees                        : 640
    faces with face pyramid volume < 1e-13                 : 0
    faces with face-decomposition tet quality < 1e-15      : 0
    faces with concavity > 80  degrees                     : 0
    faces with skewness > 4   (internal) or 20  (boundary) : 0
    faces with interpolation weights (0..1)  < 0.05        : 0
    faces with volume ratio of neighbour cells < 0.01      : 0
    faces with face twist < 0.02                           : 0
    faces on cells with determinant < 0.001                : 0

Scaling iteration 5
Moving mesh using displacement scaling : min:0.23730469  max:1
Checking faces in error :
    non-orthogonality > 65  degrees                        : 0
    faces with face pyramid volume < 1e-13                 : 0
    faces with face-decomposition tet quality < 1e-15      : 0
    faces with concavity > 80  degrees                     : 0
    faces with skewness > 4   (internal) or 20  (boundary) : 0
    faces with interpolation weights (0..1)  < 0.05        : 0
    faces with volume ratio of neighbour cells < 0.01      : 0
    faces with face twist < 0.02                           : 0
    faces on cells with determinant < 0.001                : 0
Successfully moved mesh

Smoothing iteration 2
Found 0 non-manifold point(s).

Scaling iteration 0
Moving mesh using displacement scaling : min:1  max:1
Checking faces in error :
    non-orthogonality > 65  degrees                        : 5184
    faces with face pyramid volume < 1e-13                 : 5184
    faces with face-decomposition tet quality < 1e-15      : 0
    faces with concavity > 80  degrees                     : 0
    faces with skewness > 4   (internal) or 20  (boundary) : 0
    faces with interpolation weights (0..1)  < 0.05        : 0
    faces with volume ratio of neighbour cells < 0.01      : 0
    faces with face twist < 0.02                           : 0
    faces on cells with determinant < 0.001                : 0

Scaling iteration 1
Moving mesh using displacement scaling : min:0.75  max:1
Checking faces in error :
    non-orthogonality > 65  degrees                        : 5184
    faces with face pyramid volume < 1e-13                 : 5184
    faces with face-decomposition tet quality < 1e-15      : 0
    faces with concavity > 80  degrees                     : 0
    faces with skewness > 4   (internal) or 20  (boundary) : 0
    faces with interpolation weights (0..1)  < 0.05        : 0
    faces with volume ratio of neighbour cells < 0.01      : 0
    faces with face twist < 0.02                           : 0
    faces on cells with determinant < 0.001                : 0

Scaling iteration 2
Moving mesh using displacement scaling : min:0.5625  max:1
Checking faces in error :
    non-orthogonality > 65  degrees                        : 5184
    faces with face pyramid volume < 1e-13                 : 5184
    faces with face-decomposition tet quality < 1e-15      : 0
    faces with concavity > 80  degrees                     : 0
    faces with skewness > 4   (internal) or 20  (boundary) : 0
    faces with interpolation weights (0..1)  < 0.05        : 0
    faces with volume ratio of neighbour cells < 0.01      : 0
    faces with face twist < 0.02                           : 0
    faces on cells with determinant < 0.001                : 0

Scaling iteration 3
Moving mesh using displacement scaling : min:0.421875  max:1
Checking faces in error :
    non-orthogonality > 65  degrees                        : 5184
    faces with face pyramid volume < 1e-13                 : 5184
    faces with face-decomposition tet quality < 1e-15      : 0
    faces with concavity > 80  degrees                     : 0
    faces with skewness > 4   (internal) or 20  (boundary) : 0
    faces with interpolation weights (0..1)  < 0.05        : 0
    faces with volume ratio of neighbour cells < 0.01      : 0
    faces with face twist < 0.02                           : 0
    faces on cells with determinant < 0.001                : 0

Scaling iteration 4
Moving mesh using displacement scaling : min:0.31640625  max:1
Checking faces in error :
    non-orthogonality > 65  degrees                        : 5824
    faces with face pyramid volume < 1e-13                 : 4544
    faces with face-decomposition tet quality < 1e-15      : 0
    faces with concavity > 80  degrees                     : 0
    faces with skewness > 4   (internal) or 20  (boundary) : 0
    faces with interpolation weights (0..1)  < 0.05        : 0
    faces with volume ratio of neighbour cells < 0.01      : 0
    faces with face twist < 0.02                           : 0
    faces on cells with determinant < 0.001                : 0

Scaling iteration 5
Moving mesh using displacement scaling : min:0.23730469  max:1
Checking faces in error :
    non-orthogonality > 65  degrees                        : 6128
    faces with face pyramid volume < 1e-13                 : 2608
    faces with face-decomposition tet quality < 1e-15      : 680
    faces with concavity > 80  degrees                     : 0
    faces with skewness > 4   (internal) or 20  (boundary) : 0
    faces with interpolation weights (0..1)  < 0.05        : 0
    faces with volume ratio of neighbour cells < 0.01      : 0
    faces with face twist < 0.02                           : 640
    faces on cells with determinant < 0.001                : 312

Scaling iteration 6
Moving mesh using displacement scaling : min:0.17797852  max:1
Checking faces in error :
    non-orthogonality > 65  degrees                        : 3806
    faces with face pyramid volume < 1e-13                 : 0
    faces with face-decomposition tet quality < 1e-15      : 1310
    faces with concavity > 80  degrees                     : 0
    faces with skewness > 4   (internal) or 20  (boundary) : 0
    faces with interpolation weights (0..1)  < 0.05        : 656
    faces with volume ratio of neighbour cells < 0.01      : 0
    faces with face twist < 0.02                           : 1904
    faces on cells with determinant < 0.001                : 2692

Scaling iteration 7
Moving mesh using displacement scaling : min:0.13348389  max:1
Checking faces in error :
    non-orthogonality > 65  degrees                        : 1579
    faces with face pyramid volume < 1e-13                 : 0
    faces with face-decomposition tet quality < 1e-15      : 660
    faces with concavity > 80  degrees                     : 0
    faces with skewness > 4   (internal) or 20  (boundary) : 0
    faces with interpolation weights (0..1)  < 0.05        : 32
    faces with volume ratio of neighbour cells < 0.01      : 0
    faces with face twist < 0.02                           : 640
    faces on cells with determinant < 0.001                : 5511

Scaling iteration 8
Moving mesh using displacement scaling : min:0.10011292  max:1
Checking faces in error :
    non-orthogonality > 65  degrees                        : 640
    faces with face pyramid volume < 1e-13                 : 0
    faces with face-decomposition tet quality < 1e-15      : 0
    faces with concavity > 80  degrees                     : 0
    faces with skewness > 4   (internal) or 20  (boundary) : 0
    faces with interpolation weights (0..1)  < 0.05        : 0
    faces with volume ratio of neighbour cells < 0.01      : 0
    faces with face twist < 0.02                           : 624
    faces on cells with determinant < 0.001                : 1591

Scaling iteration 9
Moving mesh using displacement scaling : min:0.075084686  max:1
Checking faces in error :
    non-orthogonality > 65  degrees                        : 640
    faces with face pyramid volume < 1e-13                 : 0
    faces with face-decomposition tet quality < 1e-15      : 0
    faces with concavity > 80  degrees                     : 0
    faces with skewness > 4   (internal) or 20  (boundary) : 0
    faces with interpolation weights (0..1)  < 0.05        : 0
    faces with volume ratio of neighbour cells < 0.01      : 0
    faces with face twist < 0.02                           : 0
    faces on cells with determinant < 0.001                : 0

Scaling iteration 10
Moving mesh using displacement scaling : min:0.056313515  max:1
Checking faces in error :
    non-orthogonality > 65  degrees                        : 608
    faces with face pyramid volume < 1e-13                 : 0
    faces with face-decomposition tet quality < 1e-15      : 0
    faces with concavity > 80  degrees                     : 0
    faces with skewness > 4   (internal) or 20  (boundary) : 0
    faces with interpolation weights (0..1)  < 0.05        : 0
    faces with volume ratio of neighbour cells < 0.01      : 0
    faces with face twist < 0.02                           : 0
    faces on cells with determinant < 0.001                : 0

Scaling iteration 11
Moving mesh using displacement scaling : min:0.042235136  max:1
Checking faces in error :
    non-orthogonality > 65  degrees                        : 0
    faces with face pyramid volume < 1e-13                 : 0
    faces with face-decomposition tet quality < 1e-15      : 0
    faces with concavity > 80  degrees                     : 0
    faces with skewness > 4   (internal) or 20  (boundary) : 0
    faces with interpolation weights (0..1)  < 0.05        : 0
    faces with volume ratio of neighbour cells < 0.01      : 0
    faces with face twist < 0.02                           : 0
    faces on cells with determinant < 0.001                : 0
Successfully moved mesh

Smoothing iteration 3
Found 0 non-manifold point(s).

Scaling iteration 0
Moving mesh using displacement scaling : min:1  max:1
Checking faces in error :
    non-orthogonality > 65  degrees                        : 5184
    faces with face pyramid volume < 1e-13                 : 5184
    faces with face-decomposition tet quality < 1e-15      : 0
    faces with concavity > 80  degrees                     : 0
    faces with skewness > 4   (internal) or 20  (boundary) : 0
    faces with interpolation weights (0..1)  < 0.05        : 0
    faces with volume ratio of neighbour cells < 0.01      : 0
    faces with face twist < 0.02                           : 0
    faces on cells with determinant < 0.001                : 0

Scaling iteration 1
Moving mesh using displacement scaling : min:0.75  max:1
Checking faces in error :
    non-orthogonality > 65  degrees                        : 5184
    faces with face pyramid volume < 1e-13                 : 5184
    faces with face-decomposition tet quality < 1e-15      : 0
    faces with concavity > 80  degrees                     : 0
    faces with skewness > 4   (internal) or 20  (boundary) : 0
    faces with interpolation weights (0..1)  < 0.05        : 0
    faces with volume ratio of neighbour cells < 0.01      : 0
    faces with face twist < 0.02                           : 0
    faces on cells with determinant < 0.001                : 0

Scaling iteration 2
Moving mesh using displacement scaling : min:0.5625  max:1
Checking faces in error :
    non-orthogonality > 65  degrees                        : 5184
    faces with face pyramid volume < 1e-13                 : 5184
    faces with face-decomposition tet quality < 1e-15      : 0
    faces with concavity > 80  degrees                     : 0
    faces with skewness > 4   (internal) or 20  (boundary) : 0
    faces with interpolation weights (0..1)  < 0.05        : 0
    faces with volume ratio of neighbour cells < 0.01      : 0
    faces with face twist < 0.02                           : 0
    faces on cells with determinant < 0.001                : 0

Scaling iteration 3
Moving mesh using displacement scaling : min:0.421875  max:1
Checking faces in error :
    non-orthogonality > 65  degrees                        : 5184
    faces with face pyramid volume < 1e-13                 : 5184
    faces with face-decomposition tet quality < 1e-15      : 0
    faces with concavity > 80  degrees                     : 0
    faces with skewness > 4   (internal) or 20  (boundary) : 0
    faces with interpolation weights (0..1)  < 0.05        : 0
    faces with volume ratio of neighbour cells < 0.01      : 0
    faces with face twist < 0.02                           : 0
    faces on cells with determinant < 0.001                : 0

Scaling iteration 4
Moving mesh using displacement scaling : min:0.31640625  max:1
Checking faces in error :
    non-orthogonality > 65  degrees                        : 5200
    faces with face pyramid volume < 1e-13                 : 5168
    faces with face-decomposition tet quality < 1e-15      : 0
    faces with concavity > 80  degrees                     : 0
    faces with skewness > 4   (internal) or 20  (boundary) : 0
    faces with interpolation weights (0..1)  < 0.05        : 0
    faces with volume ratio of neighbour cells < 0.01      : 0
    faces with face twist < 0.02                           : 0
    faces on cells with determinant < 0.001                : 0

Scaling iteration 5
Moving mesh using displacement scaling : min:0.23730469  max:1
Checking faces in error :
    non-orthogonality > 65  degrees                        : 6464
    faces with face pyramid volume < 1e-13                 : 3904
    faces with face-decomposition tet quality < 1e-15      : 0
    faces with concavity > 80  degrees                     : 0
    faces with skewness > 4   (internal) or 20  (boundary) : 0
    faces with interpolation weights (0..1)  < 0.05        : 0
    faces with volume ratio of neighbour cells < 0.01      : 0
    faces with face twist < 0.02                           : 0
    faces on cells with determinant < 0.001                : 0

Scaling iteration 6
Moving mesh using displacement scaling : min:0.17797852  max:1
Checking faces in error :
    non-orthogonality > 65  degrees                        : 7071
    faces with face pyramid volume < 1e-13                 : 2656
    faces with face-decomposition tet quality < 1e-15      : 16
    faces with concavity > 80  degrees                     : 0
    faces with skewness > 4   (internal) or 20  (boundary) : 0
    faces with interpolation weights (0..1)  < 0.05        : 0
    faces with volume ratio of neighbour cells < 0.01      : 0
    faces with face twist < 0.02                           : 0
    faces on cells with determinant < 0.001                : 625

Scaling iteration 7
Moving mesh using displacement scaling : min:0.13348389  max:1
Checking faces in error :
    non-orthogonality > 65  degrees                        : 4872
    faces with face pyramid volume < 1e-13                 : 656
    faces with face-decomposition tet quality < 1e-15      : 1972
    faces with concavity > 80  degrees                     : 0
    faces with skewness > 4   (internal) or 20  (boundary) : 0
    faces with interpolation weights (0..1)  < 0.05        : 620
    faces with volume ratio of neighbour cells < 0.01      : 0
    faces with face twist < 0.02                           : 1904
    faces on cells with determinant < 0.001                : 344

Scaling iteration 8
Moving mesh using displacement scaling : min:0.10011292  max:1
Checking faces in error :
    non-orthogonality > 65  degrees                        : 3829
    faces with face pyramid volume < 1e-13                 : 16
    faces with face-decomposition tet quality < 1e-15      : 1366
    faces with concavity > 80  degrees                     : 0
    faces with skewness > 4   (internal) or 20  (boundary) : 0
    faces with interpolation weights (0..1)  < 0.05        : 16
    faces with volume ratio of neighbour cells < 0.01      : 0
    faces with face twist < 0.02                           : 2544
    faces on cells with determinant < 0.001                : 2597

Scaling iteration 9
Moving mesh using displacement scaling : min:0.075084686  max:1
Checking faces in error :
    non-orthogonality > 65  degrees                        : 2240
    faces with face pyramid volume < 1e-13                 : 0
    faces with face-decomposition tet quality < 1e-15      : 989
    faces with concavity > 80  degrees                     : 0
    faces with skewness > 4   (internal) or 20  (boundary) : 0
    faces with interpolation weights (0..1)  < 0.05        : 640
    faces with volume ratio of neighbour cells < 0.01      : 0
    faces with face twist < 0.02                           : 1904
    faces on cells with determinant < 0.001                : 4595

Scaling iteration 10
Moving mesh using displacement scaling : min:0.056313515  max:1
Checking faces in error :
    non-orthogonality > 65  degrees                        : 1888
    faces with face pyramid volume < 1e-13                 : 0
    faces with face-decomposition tet quality < 1e-15      : 0
    faces with concavity > 80  degrees                     : 0
    faces with skewness > 4   (internal) or 20  (boundary) : 0
    faces with interpolation weights (0..1)  < 0.05        : 656
    faces with volume ratio of neighbour cells < 0.01      : 0
    faces with face twist < 0.02                           : 1280
    faces on cells with determinant < 0.001                : 5265

Scaling iteration 11
Moving mesh using displacement scaling : min:0.042235136  max:1
Checking faces in error :
    non-orthogonality > 65  degrees                        : 1872
    faces with face pyramid volume < 1e-13                 : 0
    faces with face-decomposition tet quality < 1e-15      : 0
    faces with concavity > 80  degrees                     : 0
    faces with skewness > 4   (internal) or 20  (boundary) : 0
    faces with interpolation weights (0..1)  < 0.05        : 32
    faces with volume ratio of neighbour cells < 0.01      : 0
    faces with face twist < 0.02                           : 640
    faces on cells with determinant < 0.001                : 6425

Scaling iteration 12
Moving mesh using displacement scaling : min:0.031676352  max:1
Checking faces in error :
    non-orthogonality > 65  degrees                        : 1264
    faces with face pyramid volume < 1e-13                 : 0
    faces with face-decomposition tet quality < 1e-15      : 0
    faces with concavity > 80  degrees                     : 0
    faces with skewness > 4   (internal) or 20  (boundary) : 0
    faces with interpolation weights (0..1)  < 0.05        : 16
    faces with volume ratio of neighbour cells < 0.01      : 0
    faces with face twist < 0.02                           : 0
    faces on cells with determinant < 0.001                : 2346

Scaling iteration 13
Moving mesh using displacement scaling : min:0.023757264  max:1
Checking faces in error :
    non-orthogonality > 65  degrees                        : 640
    faces with face pyramid volume < 1e-13                 : 0
    faces with face-decomposition tet quality < 1e-15      : 0
    faces with concavity > 80  degrees                     : 0
    faces with skewness > 4   (internal) or 20  (boundary) : 0
    faces with interpolation weights (0..1)  < 0.05        : 16
    faces with volume ratio of neighbour cells < 0.01      : 0
    faces with face twist < 0.02                           : 0
    faces on cells with determinant < 0.001                : 2834

Scaling iteration 14
Moving mesh using displacement scaling : min:0.017817948  max:1
Checking faces in error :
    non-orthogonality > 65  degrees                        : 624
    faces with face pyramid volume < 1e-13                 : 0
    faces with face-decomposition tet quality < 1e-15      : 0
    faces with concavity > 80  degrees                     : 0
    faces with skewness > 4   (internal) or 20  (boundary) : 0
    faces with interpolation weights (0..1)  < 0.05        : 16
    faces with volume ratio of neighbour cells < 0.01      : 0
    faces with face twist < 0.02                           : 0
    faces on cells with determinant < 0.001                : 72

Scaling iteration 15
Moving mesh using displacement scaling : min:0.013363461  max:1
Checking faces in error :
    non-orthogonality > 65  degrees                        : 624
    faces with face pyramid volume < 1e-13                 : 0
    faces with face-decomposition tet quality < 1e-15      : 0
    faces with concavity > 80  degrees                     : 0
    faces with skewness > 4   (internal) or 20  (boundary) : 0
    faces with interpolation weights (0..1)  < 0.05        : 16
    faces with volume ratio of neighbour cells < 0.01      : 0
    faces with face twist < 0.02                           : 0
    faces on cells with determinant < 0.001                : 72

Scaling iteration 16
Moving mesh using displacement scaling : min:0.010022596  max:1
Checking faces in error :
    non-orthogonality > 65  degrees                        : 16
    faces with face pyramid volume < 1e-13                 : 0
    faces with face-decomposition tet quality < 1e-15      : 0
    faces with concavity > 80  degrees                     : 0
    faces with skewness > 4   (internal) or 20  (boundary) : 0
    faces with interpolation weights (0..1)  < 0.05        : 0
    faces with volume ratio of neighbour cells < 0.01      : 0
    faces with face twist < 0.02                           : 0
    faces on cells with determinant < 0.001                : 0

Scaling iteration 17
Moving mesh using displacement scaling : min:0.0075169468  max:1
Checking faces in error :
    non-orthogonality > 65  degrees                        : 16
    faces with face pyramid volume < 1e-13                 : 0
    faces with face-decomposition tet quality < 1e-15      : 0
    faces with concavity > 80  degrees                     : 0
    faces with skewness > 4   (internal) or 20  (boundary) : 0
    faces with interpolation weights (0..1)  < 0.05        : 0
    faces with volume ratio of neighbour cells < 0.01      : 0
    faces with face twist < 0.02                           : 0
    faces on cells with determinant < 0.001                : 0

Scaling iteration 18
Moving mesh using displacement scaling : min:0.0056377101  max:1
Checking faces in error :
    non-orthogonality > 65  degrees                        : 0
    faces with face pyramid volume < 1e-13                 : 0
    faces with face-decomposition tet quality < 1e-15      : 0
    faces with concavity > 80  degrees                     : 0
    faces with skewness > 4   (internal) or 20  (boundary) : 0
    faces with interpolation weights (0..1)  < 0.05        : 0
    faces with volume ratio of neighbour cells < 0.01      : 0
    faces with face twist < 0.02                           : 0
    faces on cells with determinant < 0.001                : 0
Successfully moved mesh

Smoothing iteration 4
Found 0 non-manifold point(s).

Scaling iteration 0
Moving mesh using displacement scaling : min:1  max:1
Checking faces in error :
    non-orthogonality > 65  degrees                        : 5184
    faces with face pyramid volume < 1e-13                 : 5184
    faces with face-decomposition tet quality < 1e-15      : 0
    faces with concavity > 80  degrees                     : 0
    faces with skewness > 4   (internal) or 20  (boundary) : 0
    faces with interpolation weights (0..1)  < 0.05        : 0
    faces with volume ratio of neighbour cells < 0.01      : 0
    faces with face twist < 0.02                           : 0
    faces on cells with determinant < 0.001                : 0

Scaling iteration 1
Moving mesh using displacement scaling : min:0.75  max:1
Checking faces in error :
    non-orthogonality > 65  degrees                        : 5184
    faces with face pyramid volume < 1e-13                 : 5184
    faces with face-decomposition tet quality < 1e-15      : 0
    faces with concavity > 80  degrees                     : 0
    faces with skewness > 4   (internal) or 20  (boundary) : 0
    faces with interpolation weights (0..1)  < 0.05        : 0
    faces with volume ratio of neighbour cells < 0.01      : 0
    faces with face twist < 0.02                           : 0
    faces on cells with determinant < 0.001                : 0

Scaling iteration 2
Moving mesh using displacement scaling : min:0.5625  max:1
Checking faces in error :
    non-orthogonality > 65  degrees                        : 5184
    faces with face pyramid volume < 1e-13                 : 5184
    faces with face-decomposition tet quality < 1e-15      : 0
    faces with concavity > 80  degrees                     : 0
    faces with skewness > 4   (internal) or 20  (boundary) : 0
    faces with interpolation weights (0..1)  < 0.05        : 0
    faces with volume ratio of neighbour cells < 0.01      : 0
    faces with face twist < 0.02                           : 0
    faces on cells with determinant < 0.001                : 0

Scaling iteration 3
Moving mesh using displacement scaling : min:0.421875  max:1
Checking faces in error :
    non-orthogonality > 65  degrees                        : 5184
    faces with face pyramid volume < 1e-13                 : 5184
    faces with face-decomposition tet quality < 1e-15      : 0
    faces with concavity > 80  degrees                     : 0
    faces with skewness > 4   (internal) or 20  (boundary) : 0
    faces with interpolation weights (0..1)  < 0.05        : 0
    faces with volume ratio of neighbour cells < 0.01      : 0
    faces with face twist < 0.02                           : 0
    faces on cells with determinant < 0.001                : 0

Scaling iteration 4
Moving mesh using displacement scaling : min:0.31640625  max:1
Checking faces in error :
    non-orthogonality > 65  degrees                        : 5184
    faces with face pyramid volume < 1e-13                 : 5184
    faces with face-decomposition tet quality < 1e-15      : 0
    faces with concavity > 80  degrees                     : 0
    faces with skewness > 4   (internal) or 20  (boundary) : 0
    faces with interpolation weights (0..1)  < 0.05        : 0
    faces with volume ratio of neighbour cells < 0.01      : 0
    faces with face twist < 0.02                           : 0
    faces on cells with determinant < 0.001                : 0

Scaling iteration 5
Moving mesh using displacement scaling : min:0.23730469  max:1
Checking faces in error :
    non-orthogonality > 65  degrees                        : 6464
    faces with face pyramid volume < 1e-13                 : 3904
    faces with face-decomposition tet quality < 1e-15      : 0
    faces with concavity > 80  degrees                     : 0
    faces with skewness > 4   (internal) or 20  (boundary) : 0
    faces with interpolation weights (0..1)  < 0.05        : 0
    faces with volume ratio of neighbour cells < 0.01      : 0
    faces with face twist < 0.02                           : 0
    faces on cells with determinant < 0.001                : 0

Scaling iteration 6
Moving mesh using displacement scaling : min:0.17797852  max:1
Checking faces in error :
    non-orthogonality > 65  degrees                        : 7088
    faces with face pyramid volume < 1e-13                 : 3280
    faces with face-decomposition tet quality < 1e-15      : 0
    faces with concavity > 80  degrees                     : 0
    faces with skewness > 4   (internal) or 20  (boundary) : 0
    faces with interpolation weights (0..1)  < 0.05        : 0
    faces with volume ratio of neighbour cells < 0.01      : 0
    faces with face twist < 0.02                           : 0
    faces on cells with determinant < 0.001                : 0

Scaling iteration 7
Moving mesh using displacement scaling : min:0.13348389  max:1
Checking faces in error :
    non-orthogonality > 65  degrees                        : 6096
    faces with face pyramid volume < 1e-13                 : 2592
    faces with face-decomposition tet quality < 1e-15      : 685
    faces with concavity > 80  degrees                     : 0
    faces with skewness > 4   (internal) or 20  (boundary) : 0
    faces with interpolation weights (0..1)  < 0.05        : 16
    faces with volume ratio of neighbour cells < 0.01      : 0
    faces with face twist < 0.02                           : 640
    faces on cells with determinant < 0.001                : 339

Scaling iteration 8
Moving mesh using displacement scaling : min:0.10011292  max:1
Checking faces in error :
    non-orthogonality > 65  degrees                        : 4497
    faces with face pyramid volume < 1e-13                 : 16
    faces with face-decomposition tet quality < 1e-15      : 2654
    faces with concavity > 80  degrees                     : 0
    faces with skewness > 4   (internal) or 20  (boundary) : 0
    faces with interpolation weights (0..1)  < 0.05        : 16
    faces with volume ratio of neighbour cells < 0.01      : 0
    faces with face twist < 0.02                           : 2528
    faces on cells with determinant < 0.001                : 657

Scaling iteration 9
Moving mesh using displacement scaling : min:0.075084686  max:1
Checking faces in error :
    non-orthogonality > 65  degrees                        : 3821
    faces with face pyramid volume < 1e-13                 : 0
    faces with face-decomposition tet quality < 1e-15      : 1914
    faces with concavity > 80  degrees                     : 0
    faces with skewness > 4   (internal) or 20  (boundary) : 0
    faces with interpolation weights (0..1)  < 0.05        : 16
    faces with volume ratio of neighbour cells < 0.01      : 0
    faces with face twist < 0.02                           : 2544
    faces on cells with determinant < 0.001                : 2073

Scaling iteration 10
Moving mesh using displacement scaling : min:0.056313515  max:1
Checking faces in error :
    non-orthogonality > 65  degrees                        : 2850
    faces with face pyramid volume < 1e-13                 : 0
    faces with face-decomposition tet quality < 1e-15      : 642
    faces with concavity > 80  degrees                     : 0
    faces with skewness > 4   (internal) or 20  (boundary) : 0
    faces with interpolation weights (0..1)  < 0.05        : 640
    faces with volume ratio of neighbour cells < 0.01      : 0
    faces with face twist < 0.02                           : 2496
    faces on cells with determinant < 0.001                : 3740

Scaling iteration 11
Moving mesh using displacement scaling : min:0.042235136  max:1
Checking faces in error :
    non-orthogonality > 65  degrees                        : 1904
    faces with face pyramid volume < 1e-13                 : 0
    faces with face-decomposition tet quality < 1e-15      : 0
    faces with concavity > 80  degrees                     : 0
    faces with skewness > 4   (internal) or 20  (boundary) : 0
    faces with interpolation weights (0..1)  < 0.05        : 656
    faces with volume ratio of neighbour cells < 0.01      : 0
    faces with face twist < 0.02                           : 1280
    faces on cells with determinant < 0.001                : 6480

Scaling iteration 12
Moving mesh using displacement scaling : min:0.031676352  max:1
Checking faces in error :
    non-orthogonality > 65  degrees                        : 1888
    faces with face pyramid volume < 1e-13                 : 0
    faces with face-decomposition tet quality < 1e-15      : 0
    faces with concavity > 80  degrees                     : 0
    faces with skewness > 4   (internal) or 20  (boundary) : 0
    faces with interpolation weights (0..1)  < 0.05        : 656
    faces with volume ratio of neighbour cells < 0.01      : 0
    faces with face twist < 0.02                           : 624
    faces on cells with determinant < 0.001                : 5777

Scaling iteration 13
Moving mesh using displacement scaling : min:0.023757264  max:1
Checking faces in error :
    non-orthogonality > 65  degrees                        : 1888
    faces with face pyramid volume < 1e-13                 : 0
    faces with face-decomposition tet quality < 1e-15      : 0
    faces with concavity > 80  degrees                     : 0
    faces with skewness > 4   (internal) or 20  (boundary) : 0
    faces with interpolation weights (0..1)  < 0.05        : 640
    faces with volume ratio of neighbour cells < 0.01      : 0
    faces with face twist < 0.02                           : 624
    faces on cells with determinant < 0.001                : 3618

Scaling iteration 14
Moving mesh using displacement scaling : min:0.017817948  max:1
Checking faces in error :
    non-orthogonality > 65  degrees                        : 1888
    faces with face pyramid volume < 1e-13                 : 0
    faces with face-decomposition tet quality < 1e-15      : 0
    faces with concavity > 80  degrees                     : 0
    faces with skewness > 4   (internal) or 20  (boundary) : 0
    faces with interpolation weights (0..1)  < 0.05        : 32
    faces with volume ratio of neighbour cells < 0.01      : 0
    faces with face twist < 0.02                           : 608
    faces on cells with determinant < 0.001                : 4194

Scaling iteration 15
Moving mesh using displacement scaling : min:0.013363461  max:1
Checking faces in error :
    non-orthogonality > 65  degrees                        : 1856
    faces with face pyramid volume < 1e-13                 : 0
    faces with face-decomposition tet quality < 1e-15      : 0
    faces with concavity > 80  degrees                     : 0
    faces with skewness > 4   (internal) or 20  (boundary) : 0
    faces with interpolation weights (0..1)  < 0.05        : 16
    faces with volume ratio of neighbour cells < 0.01      : 0
    faces with face twist < 0.02                           : 0
    faces on cells with determinant < 0.001                : 4770

Scaling iteration 16
Moving mesh using displacement scaling : min:0.010022596  max:1
Checking faces in error :
    non-orthogonality > 65  degrees                        : 1856
    faces with face pyramid volume < 1e-13                 : 0
    faces with face-decomposition tet quality < 1e-15      : 0
    faces with concavity > 80  degrees                     : 0
    faces with skewness > 4   (internal) or 20  (boundary) : 0
    faces with interpolation weights (0..1)  < 0.05        : 16
    faces with volume ratio of neighbour cells < 0.01      : 0
    faces with face twist < 0.02                           : 0
    faces on cells with determinant < 0.001                : 2306

Scaling iteration 17
Moving mesh using displacement scaling : min:0.0075169468  max:1
Checking faces in error :
    non-orthogonality > 65  degrees                        : 1232
    faces with face pyramid volume < 1e-13                 : 0
    faces with face-decomposition tet quality < 1e-15      : 0
    faces with concavity > 80  degrees                     : 0
    faces with skewness > 4   (internal) or 20  (boundary) : 0
    faces with interpolation weights (0..1)  < 0.05        : 16
    faces with volume ratio of neighbour cells < 0.01      : 0
    faces with face twist < 0.02                           : 0
    faces on cells with determinant < 0.001                : 2834

Scaling iteration 18
Moving mesh using displacement scaling : min:0.0056377101  max:1
Checking faces in error :
    non-orthogonality > 65  degrees                        : 1216
    faces with face pyramid volume < 1e-13                 : 0
    faces with face-decomposition tet quality < 1e-15      : 0
    faces with concavity > 80  degrees                     : 0
    faces with skewness > 4   (internal) or 20  (boundary) : 0
    faces with interpolation weights (0..1)  < 0.05        : 16
    faces with volume ratio of neighbour cells < 0.01      : 0
    faces with face twist < 0.02                           : 0
    faces on cells with determinant < 0.001                : 72

Scaling iteration 19
Moving mesh using displacement scaling : min:0.0042282826  max:1
Checking faces in error :
    non-orthogonality > 65  degrees                        : 1200
    faces with face pyramid volume < 1e-13                 : 0
    faces with face-decomposition tet quality < 1e-15      : 0
    faces with concavity > 80  degrees                     : 0
    faces with skewness > 4   (internal) or 20  (boundary) : 0
    faces with interpolation weights (0..1)  < 0.05        : 16
    faces with volume ratio of neighbour cells < 0.01      : 0
    faces with face twist < 0.02                           : 0
    faces on cells with determinant < 0.001                : 72

Scaling iteration 20
Displacement scaling for error reduction set to 0.
Moving mesh using displacement scaling : min:0.0031712119  max:1
Checking faces in error :
    non-orthogonality > 65  degrees                        : 608
    faces with face pyramid volume < 1e-13                 : 0
    faces with face-decomposition tet quality < 1e-15      : 0
    faces with concavity > 80  degrees                     : 0
    faces with skewness > 4   (internal) or 20  (boundary) : 0
    faces with interpolation weights (0..1)  < 0.05        : 16
    faces with volume ratio of neighbour cells < 0.01      : 0
    faces with face twist < 0.02                           : 0
    faces on cells with determinant < 0.001                : 72

Scaling iteration 21
Moving mesh using displacement scaling : min:0  max:1
Checking faces in error :
    non-orthogonality > 65  degrees                        : 560
    faces with face pyramid volume < 1e-13                 : 0
    faces with face-decomposition tet quality < 1e-15      : 0
    faces with concavity > 80  degrees                     : 0
    faces with skewness > 4   (internal) or 20  (boundary) : 0
    faces with interpolation weights (0..1)  < 0.05        : 0
    faces with volume ratio of neighbour cells < 0.01      : 0
    faces with face twist < 0.02                           : 0
    faces on cells with determinant < 0.001                : 0

Scaling iteration 22
Moving mesh using displacement scaling : min:0  max:1
Checking faces in error :
    non-orthogonality > 65  degrees                        : 0
    faces with face pyramid volume < 1e-13                 : 0
    faces with face-decomposition tet quality < 1e-15      : 0
    faces with concavity > 80  degrees                     : 0
    faces with skewness > 4   (internal) or 20  (boundary) : 0
    faces with interpolation weights (0..1)  < 0.05        : 0
    faces with volume ratio of neighbour cells < 0.01      : 0
    faces with face twist < 0.02                           : 0
    faces on cells with determinant < 0.001                : 0
Successfully moved mesh

Smoothing iteration 5
Found 0 non-manifold point(s).

Scaling iteration 0
Moving mesh using displacement scaling : min:1  max:1
Checking faces in error :
    non-orthogonality > 65  degrees                        : 5184
    faces with face pyramid volume < 1e-13                 : 5184
    faces with face-decomposition tet quality < 1e-15      : 0
    faces with concavity > 80  degrees                     : 0
    faces with skewness > 4   (internal) or 20  (boundary) : 0
    faces with interpolation weights (0..1)  < 0.05        : 0
    faces with volume ratio of neighbour cells < 0.01      : 0
    faces with face twist < 0.02                           : 0
    faces on cells with determinant < 0.001                : 0

Scaling iteration 1
Moving mesh using displacement scaling : min:0.75  max:1
Checking faces in error :
    non-orthogonality > 65  degrees                        : 5184
    faces with face pyramid volume < 1e-13                 : 5184
    faces with face-decomposition tet quality < 1e-15      : 0
    faces with concavity > 80  degrees                     : 0
    faces with skewness > 4   (internal) or 20  (boundary) : 0
    faces with interpolation weights (0..1)  < 0.05        : 0
    faces with volume ratio of neighbour cells < 0.01      : 0
    faces with face twist < 0.02                           : 0
    faces on cells with determinant < 0.001                : 0

Scaling iteration 2
Moving mesh using displacement scaling : min:0.5625  max:1
Checking faces in error :
    non-orthogonality > 65  degrees                        : 5184
    faces with face pyramid volume < 1e-13                 : 5184
    faces with face-decomposition tet quality < 1e-15      : 0
    faces with concavity > 80  degrees                     : 0
    faces with skewness > 4   (internal) or 20  (boundary) : 0
    faces with interpolation weights (0..1)  < 0.05        : 0
    faces with volume ratio of neighbour cells < 0.01      : 0
    faces with face twist < 0.02                           : 0
    faces on cells with determinant < 0.001                : 0

Scaling iteration 3
Moving mesh using displacement scaling : min:0.421875  max:1
Checking faces in error :
    non-orthogonality > 65  degrees                        : 5184
    faces with face pyramid volume < 1e-13                 : 5184
    faces with face-decomposition tet quality < 1e-15      : 0
    faces with concavity > 80  degrees                     : 0
    faces with skewness > 4   (internal) or 20  (boundary) : 0
    faces with interpolation weights (0..1)  < 0.05        : 0
    faces with volume ratio of neighbour cells < 0.01      : 0
    faces with face twist < 0.02                           : 0
    faces on cells with determinant < 0.001                : 0

Scaling iteration 4
Moving mesh using displacement scaling : min:0.31640625  max:1
Checking faces in error :
    non-orthogonality > 65  degrees                        : 5184
    faces with face pyramid volume < 1e-13                 : 5184
    faces with face-decomposition tet quality < 1e-15      : 0
    faces with concavity > 80  degrees                     : 0
    faces with skewness > 4   (internal) or 20  (boundary) : 0
    faces with interpolation weights (0..1)  < 0.05        : 0
    faces with volume ratio of neighbour cells < 0.01      : 0
    faces with face twist < 0.02                           : 0
    faces on cells with determinant < 0.001                : 0

Scaling iteration 5
Moving mesh using displacement scaling : min:0.23730469  max:1
Checking faces in error :
    non-orthogonality > 65  degrees                        : 6464
    faces with face pyramid volume < 1e-13                 : 3904
    faces with face-decomposition tet quality < 1e-15      : 0
    faces with concavity > 80  degrees                     : 0
    faces with skewness > 4   (internal) or 20  (boundary) : 0
    faces with interpolation weights (0..1)  < 0.05        : 0
    faces with volume ratio of neighbour cells < 0.01      : 0
    faces with face twist < 0.02                           : 0
    faces on cells with determinant < 0.001                : 0

Scaling iteration 6
Moving mesh using displacement scaling : min:0.17797852  max:1
Checking faces in error :
    non-orthogonality > 65  degrees                        : 7088
    faces with face pyramid volume < 1e-13                 : 3280
    faces with face-decomposition tet quality < 1e-15      : 0
    faces with concavity > 80  degrees                     : 0
    faces with skewness > 4   (internal) or 20  (boundary) : 0
    faces with interpolation weights (0..1)  < 0.05        : 0
    faces with volume ratio of neighbour cells < 0.01      : 0
    faces with face twist < 0.02                           : 0
    faces on cells with determinant < 0.001                : 0

Scaling iteration 7
Moving mesh using displacement scaling : min:0.13348389  max:1
Checking faces in error :
    non-orthogonality > 65  degrees                        : 6096
    faces with face pyramid volume < 1e-13                 : 2592
    faces with face-decomposition tet quality < 1e-15      : 685
    faces with concavity > 80  degrees                     : 0
    faces with skewness > 4   (internal) or 20  (boundary) : 0
    faces with interpolation weights (0..1)  < 0.05        : 16
    faces with volume ratio of neighbour cells < 0.01      : 0
    faces with face twist < 0.02                           : 640
    faces on cells with determinant < 0.001                : 339

Scaling iteration 8
Moving mesh using displacement scaling : min:0.10011292  max:1
Checking faces in error :
    non-orthogonality > 65  degrees                        : 4231
    faces with face pyramid volume < 1e-13                 : 608
    faces with face-decomposition tet quality < 1e-15      : 2020
    faces with concavity > 80  degrees                     : 0
    faces with skewness > 4   (internal) or 20  (boundary) : 0
    faces with interpolation weights (0..1)  < 0.05        : 620
    faces with volume ratio of neighbour cells < 0.01      : 0
    faces with face twist < 0.02                           : 1936
    faces on cells with determinant < 0.001                : 953

Scaling iteration 9
Moving mesh using displacement scaling : min:0.075084686  max:1
Checking faces in error :
    non-orthogonality > 65  degrees                        : 3821
    faces with face pyramid volume < 1e-13                 : 0
    faces with face-decomposition tet quality < 1e-15      : 1946
    faces with concavity > 80  degrees                     : 0
    faces with skewness > 4   (internal) or 20  (boundary) : 0
    faces with interpolation weights (0..1)  < 0.05        : 16
    faces with volume ratio of neighbour cells < 0.01      : 0
    faces with face twist < 0.02                           : 2544
    faces on cells with determinant < 0.001                : 2041

Scaling iteration 10
Moving mesh using displacement scaling : min:0.056313515  max:1
Checking faces in error :
    non-orthogonality > 65  degrees                        : 2850
    faces with face pyramid volume < 1e-13                 : 0
    faces with face-decomposition tet quality < 1e-15      : 642
    faces with concavity > 80  degrees                     : 0
    faces with skewness > 4   (internal) or 20  (boundary) : 0
    faces with interpolation weights (0..1)  < 0.05        : 640
    faces with volume ratio of neighbour cells < 0.01      : 0
    faces with face twist < 0.02                           : 2528
    faces on cells with determinant < 0.001                : 3708

Scaling iteration 11
Moving mesh using displacement scaling : min:0.042235136  max:1
Checking faces in error :
    non-orthogonality > 65  degrees                        : 1904
    faces with face pyramid volume < 1e-13                 : 0
    faces with face-decomposition tet quality < 1e-15      : 0
    faces with concavity > 80  degrees                     : 0
    faces with skewness > 4   (internal) or 20  (boundary) : 0
    faces with interpolation weights (0..1)  < 0.05        : 656
    faces with volume ratio of neighbour cells < 0.01      : 0
    faces with face twist < 0.02                           : 1280
    faces on cells with determinant < 0.001                : 6496

Scaling iteration 12
Moving mesh using displacement scaling : min:0.031676352  max:1
Checking faces in error :
    non-orthogonality > 65  degrees                        : 1888
    faces with face pyramid volume < 1e-13                 : 0
    faces with face-decomposition tet quality < 1e-15      : 0
    faces with concavity > 80  degrees                     : 0
    faces with skewness > 4   (internal) or 20  (boundary) : 0
    faces with interpolation weights (0..1)  < 0.05        : 656
    faces with volume ratio of neighbour cells < 0.01      : 0
    faces with face twist < 0.02                           : 624
    faces on cells with determinant < 0.001                : 5833

Scaling iteration 13
Moving mesh using displacement scaling : min:0.023757264  max:1
Checking faces in error :
    non-orthogonality > 65  degrees                        : 1888
    faces with face pyramid volume < 1e-13                 : 0
    faces with face-decomposition tet quality < 1e-15      : 0
    faces with concavity > 80  degrees                     : 0
    faces with skewness > 4   (internal) or 20  (boundary) : 0
    faces with interpolation weights (0..1)  < 0.05        : 640
    faces with volume ratio of neighbour cells < 0.01      : 0
    faces with face twist < 0.02                           : 624
    faces on cells with determinant < 0.001                : 3618

Scaling iteration 14
Moving mesh using displacement scaling : min:0.017817948  max:1
Checking faces in error :
    non-orthogonality > 65  degrees                        : 1888
    faces with face pyramid volume < 1e-13                 : 0
    faces with face-decomposition tet quality < 1e-15      : 0
    faces with concavity > 80  degrees                     : 0
    faces with skewness > 4   (internal) or 20  (boundary) : 0
    faces with interpolation weights (0..1)  < 0.05        : 624
    faces with volume ratio of neighbour cells < 0.01      : 0
    faces with face twist < 0.02                           : 608
    faces on cells with determinant < 0.001                : 3650

Scaling iteration 15
Moving mesh using displacement scaling : min:0.013363461  max:1
Checking faces in error :
    non-orthogonality > 65  degrees                        : 1872
    faces with face pyramid volume < 1e-13                 : 0
    faces with face-decomposition tet quality < 1e-15      : 0
    faces with concavity > 80  degrees                     : 0
    faces with skewness > 4   (internal) or 20  (boundary) : 0
    faces with interpolation weights (0..1)  < 0.05        : 16
    faces with volume ratio of neighbour cells < 0.01      : 0
    faces with face twist < 0.02                           : 592
    faces on cells with determinant < 0.001                : 4242

Scaling iteration 16
Moving mesh using displacement scaling : min:0.010022596  max:1
Checking faces in error :
    non-orthogonality > 65  degrees                        : 1872
    faces with face pyramid volume < 1e-13                 : 0
    faces with face-decomposition tet quality < 1e-15      : 0
    faces with concavity > 80  degrees                     : 0
    faces with skewness > 4   (internal) or 20  (boundary) : 0
    faces with interpolation weights (0..1)  < 0.05        : 16
    faces with volume ratio of neighbour cells < 0.01      : 0
    faces with face twist < 0.02                           : 0
    faces on cells with determinant < 0.001                : 4714

Scaling iteration 17
Moving mesh using displacement scaling : min:0.0075169468  max:1
Checking faces in error :
    non-orthogonality > 65  degrees                        : 1856
    faces with face pyramid volume < 1e-13                 : 0
    faces with face-decomposition tet quality < 1e-15      : 0
    faces with concavity > 80  degrees                     : 0
    faces with skewness > 4   (internal) or 20  (boundary) : 0
    faces with interpolation weights (0..1)  < 0.05        : 16
    faces with volume ratio of neighbour cells < 0.01      : 0
    faces with face twist < 0.02                           : 0
    faces on cells with determinant < 0.001                : 2226

Scaling iteration 18
Moving mesh using displacement scaling : min:0.0056377101  max:1
Checking faces in error :
    non-orthogonality > 65  degrees                        : 1856
    faces with face pyramid volume < 1e-13                 : 0
    faces with face-decomposition tet quality < 1e-15      : 0
    faces with concavity > 80  degrees                     : 0
    faces with skewness > 4   (internal) or 20  (boundary) : 0
    faces with interpolation weights (0..1)  < 0.05        : 16
    faces with volume ratio of neighbour cells < 0.01      : 0
    faces with face twist < 0.02                           : 0
    faces on cells with determinant < 0.001                : 2226

Scaling iteration 19
Moving mesh using displacement scaling : min:0.0042282826  max:1
Checking faces in error :
    non-orthogonality > 65  degrees                        : 1840
    faces with face pyramid volume < 1e-13                 : 0
    faces with face-decomposition tet quality < 1e-15      : 0
    faces with concavity > 80  degrees                     : 0
    faces with skewness > 4   (internal) or 20  (boundary) : 0
    faces with interpolation weights (0..1)  < 0.05        : 16
    faces with volume ratio of neighbour cells < 0.01      : 0
    faces with face twist < 0.02                           : 0
    faces on cells with determinant < 0.001                : 2242

Scaling iteration 20
Displacement scaling for error reduction set to 0.
Moving mesh using displacement scaling : min:0.0031712119  max:1
Checking faces in error :
    non-orthogonality > 65  degrees                        : 1232
    faces with face pyramid volume < 1e-13                 : 0
    faces with face-decomposition tet quality < 1e-15      : 0
    faces with concavity > 80  degrees                     : 0
    faces with skewness > 4   (internal) or 20  (boundary) : 0
    faces with interpolation weights (0..1)  < 0.05        : 16
    faces with volume ratio of neighbour cells < 0.01      : 0
    faces with face twist < 0.02                           : 0
    faces on cells with determinant < 0.001                : 2242

Scaling iteration 21
Moving mesh using displacement scaling : min:0  max:1
Checking faces in error :
    non-orthogonality > 65  degrees                        : 560
    faces with face pyramid volume < 1e-13                 : 0
    faces with face-decomposition tet quality < 1e-15      : 0
    faces with concavity > 80  degrees                     : 0
    faces with skewness > 4   (internal) or 20  (boundary) : 0
    faces with interpolation weights (0..1)  < 0.05        : 0
    faces with volume ratio of neighbour cells < 0.01      : 0
    faces with face twist < 0.02                           : 0
    faces on cells with determinant < 0.001                : 0

Scaling iteration 22
Moving mesh using displacement scaling : min:0  max:1
Checking faces in error :
    non-orthogonality > 65  degrees                        : 0
    faces with face pyramid volume < 1e-13                 : 0
    faces with face-decomposition tet quality < 1e-15      : 0
    faces with concavity > 80  degrees                     : 0
    faces with skewness > 4   (internal) or 20  (boundary) : 0
    faces with interpolation weights (0..1)  < 0.05        : 0
    faces with volume ratio of neighbour cells < 0.01      : 0
    faces with face twist < 0.02                           : 0
    faces on cells with determinant < 0.001                : 0
Successfully moved mesh

Smoothing iteration 6
Found 0 non-manifold point(s).

Scaling iteration 0
Moving mesh using displacement scaling : min:1  max:1
Checking faces in error :
    non-orthogonality > 65  degrees                        : 5184
    faces with face pyramid volume < 1e-13                 : 5184
    faces with face-decomposition tet quality < 1e-15      : 0
    faces with concavity > 80  degrees                     : 0
    faces with skewness > 4   (internal) or 20  (boundary) : 0
    faces with interpolation weights (0..1)  < 0.05        : 0
    faces with volume ratio of neighbour cells < 0.01      : 0
    faces with face twist < 0.02                           : 0
    faces on cells with determinant < 0.001                : 0

Scaling iteration 1
Moving mesh using displacement scaling : min:0.75  max:1
Checking faces in error :
    non-orthogonality > 65  degrees                        : 5184
    faces with face pyramid volume < 1e-13                 : 5184
    faces with face-decomposition tet quality < 1e-15      : 0
    faces with concavity > 80  degrees                     : 0
    faces with skewness > 4   (internal) or 20  (boundary) : 0
    faces with interpolation weights (0..1)  < 0.05        : 0
    faces with volume ratio of neighbour cells < 0.01      : 0
    faces with face twist < 0.02                           : 0
    faces on cells with determinant < 0.001                : 0

Scaling iteration 2
Moving mesh using displacement scaling : min:0.5625  max:1
Checking faces in error :
    non-orthogonality > 65  degrees                        : 5184
    faces with face pyramid volume < 1e-13                 : 5184
    faces with face-decomposition tet quality < 1e-15      : 0
    faces with concavity > 80  degrees                     : 0
    faces with skewness > 4   (internal) or 20  (boundary) : 0
    faces with interpolation weights (0..1)  < 0.05        : 0
    faces with volume ratio of neighbour cells < 0.01      : 0
    faces with face twist < 0.02                           : 0
    faces on cells with determinant < 0.001                : 0

Scaling iteration 3
Moving mesh using displacement scaling : min:0.421875  max:1
Checking faces in error :
    non-orthogonality > 65  degrees                        : 5184
    faces with face pyramid volume < 1e-13                 : 5184
    faces with face-decomposition tet quality < 1e-15      : 0
    faces with concavity > 80  degrees                     : 0
[...]


Moving mesh ...

Iteration 0
Moving mesh using displacement scaling : min:1  max:1
Checking faces in error :
    non-orthogonality > 65  degrees                        : 8
    faces with face pyramid volume < 1e-13                 : 0
    faces with face-decomposition tet quality < 1e-15      : 0
    faces with concavity > 80  degrees                     : 0
    faces with skewness > 4   (internal) or 20  (boundary) : 0
    faces with interpolation weights (0..1)  < 0.05        : 8
    faces with volume ratio of neighbour cells < 0.01      : 0
    faces with face twist < 0.02                           : 0
    faces on cells with determinant < 0.001                : 0

Iteration 1
Moving mesh using displacement scaling : min:0.75  max:1
Checking faces in error :
    non-orthogonality > 65  degrees                        : 8
    faces with face pyramid volume < 1e-13                 : 0
    faces with face-decomposition tet quality < 1e-15      : 0
    faces with concavity > 80  degrees                     : 0
    faces with skewness > 4   (internal) or 20  (boundary) : 0
    faces with interpolation weights (0..1)  < 0.05        : 8
    faces with volume ratio of neighbour cells < 0.01      : 0
    faces with face twist < 0.02                           : 0
    faces on cells with determinant < 0.001                : 0

Iteration 2
Moving mesh using displacement scaling : min:0.5625  max:1
Checking faces in error :
    non-orthogonality > 65  degrees                        : 8
    faces with face pyramid volume < 1e-13                 : 0
    faces with face-decomposition tet quality < 1e-15      : 0
    faces with concavity > 80  degrees                     : 0
    faces with skewness > 4   (internal) or 20  (boundary) : 0
    faces with interpolation weights (0..1)  < 0.05        : 8
    faces with volume ratio of neighbour cells < 0.01      : 0
    faces with face twist < 0.02                           : 0
    faces on cells with determinant < 0.001                : 0

Iteration 3
Moving mesh using displacement scaling : min:0.421875  max:1
Checking faces in error :
    non-orthogonality > 65  degrees                        : 8
    faces with face pyramid volume < 1e-13                 : 0
    faces with face-decomposition tet quality < 1e-15      : 0
    faces with concavity > 80  degrees                     : 0
    faces with skewness > 4   (internal) or 20  (boundary) : 0
    faces with interpolation weights (0..1)  < 0.05        : 8
    faces with volume ratio of neighbour cells < 0.01      : 0
    faces with face twist < 0.02                           : 0
    faces on cells with determinant < 0.001                : 0

Iteration 4
Moving mesh using displacement scaling : min:0.31640625  max:1
Checking faces in error :
    non-orthogonality > 65  degrees                        : 8
    faces with face pyramid volume < 1e-13                 : 0
    faces with face-decomposition tet quality < 1e-15      : 0
    faces with concavity > 80  degrees                     : 0
    faces with skewness > 4   (internal) or 20  (boundary) : 0
    faces with interpolation weights (0..1)  < 0.05        : 8
    faces with volume ratio of neighbour cells < 0.01      : 0
    faces with face twist < 0.02                           : 0
    faces on cells with determinant < 0.001                : 0

Iteration 5
Moving mesh using displacement scaling : min:0.23730469  max:1
Checking faces in error :
    non-orthogonality > 65  degrees                        : 8
    faces with face pyramid volume < 1e-13                 : 0
    faces with face-decomposition tet quality < 1e-15      : 0
    faces with concavity > 80  degrees                     : 0
    faces with skewness > 4   (internal) or 20  (boundary) : 0
    faces with interpolation weights (0..1)  < 0.05        : 8
    faces with volume ratio of neighbour cells < 0.01      : 0
    faces with face twist < 0.02                           : 0
    faces on cells with determinant < 0.001                : 0

Iteration 6
Moving mesh using displacement scaling : min:0.17797852  max:1
Checking faces in error :
    non-orthogonality > 65  degrees                        : 6
    faces with face pyramid volume < 1e-13                 : 0
    faces with face-decomposition tet quality < 1e-15      : 0
    faces with concavity > 80  degrees                     : 0
    faces with skewness > 4   (internal) or 20  (boundary) : 0
    faces with interpolation weights (0..1)  < 0.05        : 5
    faces with volume ratio of neighbour cells < 0.01      : 0
    faces with face twist < 0.02                           : 0
    faces on cells with determinant < 0.001                : 0

Iteration 7
Moving mesh using displacement scaling : min:0.13348389  max:1
Checking faces in error :
    non-orthogonality > 65  degrees                        : 3
    faces with face pyramid volume < 1e-13                 : 0
    faces with face-decomposition tet quality < 1e-15      : 0
    faces with concavity > 80  degrees                     : 0
    faces with skewness > 4   (internal) or 20  (boundary) : 0
    faces with interpolation weights (0..1)  < 0.05        : 7
    faces with volume ratio of neighbour cells < 0.01      : 0
    faces with face twist < 0.02                           : 0
    faces on cells with determinant < 0.001                : 0

Iteration 8
Moving mesh using displacement scaling : min:0.10011292  max:1
Checking faces in error :
    non-orthogonality > 65  degrees                        : 2
    faces with face pyramid volume < 1e-13                 : 0
    faces with face-decomposition tet quality < 1e-15      : 0
    faces with concavity > 80  degrees                     : 0
    faces with skewness > 4   (internal) or 20  (boundary) : 0
    faces with interpolation weights (0..1)  < 0.05        : 4
    faces with volume ratio of neighbour cells < 0.01      : 0
    faces with face twist < 0.02                           : 0
    faces on cells with determinant < 0.001                : 0

Iteration 9
Moving mesh using displacement scaling : min:0.075084686  max:1
Checking faces in error :
    non-orthogonality > 65  degrees                        : 0
    faces with face pyramid volume < 1e-13                 : 0
    faces with face-decomposition tet quality < 1e-15      : 0
    faces with concavity > 80  degrees                     : 0
    faces with skewness > 4   (internal) or 20  (boundary) : 0
    faces with interpolation weights (0..1)  < 0.05        : 2
    faces with volume ratio of neighbour cells < 0.01      : 0
    faces with face twist < 0.02                           : 0
    faces on cells with determinant < 0.001                : 0

Iteration 10
Moving mesh using displacement scaling : min:0.056313515  max:1
Checking faces in error :
    non-orthogonality > 65  degrees                        : 0
    faces with face pyramid volume < 1e-13                 : 0
    faces with face-decomposition tet quality < 1e-15      : 0
    faces with concavity > 80  degrees                     : 0
    faces with skewness > 4   (internal) or 20  (boundary) : 0
    faces with interpolation weights (0..1)  < 0.05        : 0
    faces with volume ratio of neighbour cells < 0.01      : 0
    faces with face twist < 0.02                           : 0
    faces on cells with determinant < 0.001                : 0
Successfully moved mesh
Moved mesh in = 13.59 s


Repatching faces according to nearest surface ...
Repatched 0 faces in = 0.04 s


Edge intersection testing:
    Number of edges             : 4834736
    Number of edges to retest   : 174641
    Number of intersected edges : 6688
Merging 2208 sets of faces.

Edge intersection testing:
    Number of edges             : 4832528
    Number of edges to retest   : 8924
    Number of intersected edges : 4448

Undo iteration 0
----------------
Checking faces in error :
    non-orthogonality > 65  degrees                        : 0
    faces with face pyramid volume < 1e-13                 : 0
    faces with face-decomposition tet quality < 1e-15      : 0
    faces with concavity > 80  degrees                     : 0
    faces with skewness > 4   (internal) or 20  (boundary) : 0
    faces with interpolation weights (0..1)  < 0.05        : 0
    faces with volume ratio of neighbour cells < 0.01      : 0
    faces with face twist < 0.02                           : 0
    faces on cells with determinant < 0.001                : 0

Merging all points on surface that
- are used by only two boundary faces and
- make an angle with a cosine of more than 0.8660254.

Removing 2116 straight edge points ...

Edge intersection testing:
    Number of edges             : 4832528
    Number of edges to retest   : 8924
    Number of intersected edges : 4444

Undo iteration 0
----------------
Checking faces in error :
    non-orthogonality > 65  degrees                        : 0
    faces with face pyramid volume < 1e-13                 : 0
    faces with face-decomposition tet quality < 1e-15      : 0
    faces with concavity > 80  degrees                     : 0
    faces with skewness > 4   (internal) or 20  (boundary) : 0
    faces with interpolation weights (0..1)  < 0.05        : 0
    faces with volume ratio of neighbour cells < 0.01      : 0
    faces with face twist < 0.02                           : 0
    faces on cells with determinant < 0.001                : 0
Snapped mesh : cells:1591839  faces:4832528  points:1649324
Cells per refinement level:
    0	30384
    1	13223
    2	55240
    3	1492992
Writing mesh to time 2
Wrote mesh in = 14.28 s.
Mesh snapped in = 800.68 s.

Shrinking and layer addition phase
----------------------------------

Using mesh parameters 
{
    maxNonOrtho     65;
    maxBoundarySkewness 20;
    maxInternalSkewness 4;
    maxConcave      80;
    minVol          1e-13;
    minTetQuality   1e-15;
    minArea         -1;
    minTwist        0.02;
    minDeterminant  0.001;
    minFaceWeight   0.05;
    minVolRatio     0.01;
    minTriangleTwist -1;
    nSmoothScale    4;
    errorReduction  0.75;
    relaxed
    {
        maxNonOrtho     75;
        maxBoundarySkewness 25;
        maxInternalSkewness 8;
    }
}



Merging all faces of a cell
---------------------------
    - which are on the same patch
    - which make an angle < 275 degrees
      (cos:0.087155743)
    - as long as the resulting face doesn't become concave by more than 90 degrees
      (0=straight, 180=fully concave)

Merging 0 sets of faces.

No faces merged ...

Merging all points on surface that
- are used by only two boundary faces and
- make an angle with a cosine of more than 0.087155743.

No straight edges simplified and no points removed ...

Checking mesh manifoldness ...

Checking initial mesh ...
Checking faces in error :
    non-orthogonality > 65  degrees                        : 0
    faces with face pyramid volume < 1e-13                 : 0
    faces with face-decomposition tet quality < 1e-15      : 0
    faces with concavity > 80  degrees                     : 0
    faces with skewness > 4   (internal) or 20  (boundary) : 0
    faces with interpolation weights (0..1)  < 0.05        : 0
    faces with volume ratio of neighbour cells < 0.01      : 0
    faces with face twist < 0.02                           : 0
    faces on cells with determinant < 0.001                : 0
Detected 0 illegal faces (concave, zero area or negative cell pyramid volume)

Adding in total 0 inter-processor patches to handle extrusion of non-manifold processor boundaries.

Handling points with inconsistent layer specification ...

Handling non-manifold points ...

Checking patch manifoldness ...
Outside of local patch is multiply connected across edges or points at 0 points.
Set displacement to zero for all 0 non-manifold points

Handling feature edges ...

patch         faces    layers avg thickness[m]
                              near-wall overall
-----         -----    ------ --------- -------
splitterFront 1536     3      0.0001    0.000364
splitterRight 192      3      0.0001    0.000364
splitterLeft  192      3      0.0001    0.000364

Selecting externalDisplacementMeshMover displacementMedialAxis
displacementMedialAxis : Calculating distance to Medial Axis ...
displacementMedialAxis : Smoothing normals ...
    Iteration 0   residual 0.0087173875
displacementMedialAxis : Inserting all points on patch outerWalls
displacementMedialAxis : Inserting points on patch outlet if angle to nearest layer patch > 30 degrees.
displacementMedialAxis : Inserting points on patch inlet if angle to nearest layer patch > 30 degrees.
displacementMedialAxis : Inserting points on patch splitterRear if angle to nearest layer patch > 30 degrees.
displacementMedialAxis : Inserting points on patch splitterBottom if angle to nearest layer patch > 30 degrees.
displacementMedialAxis : Inserting points on patch splitterTop if angle to nearest layer patch > 30 degrees.
displacementMedialAxis : Smoothing normals in interior ...
    Iteration 0   residual 0.0094031554

Layer addition iteration 0
--------------------------

Determining displacement for added points according to pointNormal ...
Detected 0 points with point normal pointing through faces.
Reset displacement at 0 points to average of surrounding points.

displacementMedialAxis : Smoothing using Medial Axis ...
displacementMedialAxis : Reducing layer thickness at 0 nodes where thickness to medial axis distance is large 
displacementMedialAxis : Removing isolated regions ...
displacementMedialAxis : Number of isolated points extrusion stopped : 0
displacementMedialAxis : Smoothing field ...
    Iteration 0   residual 2.8082115e-07
displacementMedialAxis : Moving mesh ...
displacementMedialAxis : Iteration 0
Moving mesh using displacement scaling : min:1  max:1
Checking faces in error :
    non-orthogonality > 65  degrees                        : 6
    faces with face pyramid volume < 1e-13                 : 0
    faces with face-decomposition tet quality < 1e-15      : 0
    faces with concavity > 80  degrees                     : 0
    faces with skewness > 4   (internal) or 20  (boundary) : 0
    faces with interpolation weights (0..1)  < 0.05        : 3
    faces with volume ratio of neighbour cells < 0.01      : 0
    faces with face twist < 0.02                           : 0
    faces on cells with determinant < 0.001                : 227
displacementMedialAxis : Iteration 1
Moving mesh using displacement scaling : min:0.75  max:1
Checking faces in error :
    non-orthogonality > 65  degrees                        : 6
    faces with face pyramid volume < 1e-13                 : 0
    faces with face-decomposition tet quality < 1e-15      : 0
    faces with concavity > 80  degrees                     : 0
    faces with skewness > 4   (internal) or 20  (boundary) : 0
    faces with interpolation weights (0..1)  < 0.05        : 2
    faces with volume ratio of neighbour cells < 0.01      : 0
    faces with face twist < 0.02                           : 0
    faces on cells with determinant < 0.001                : 90
displacementMedialAxis : Iteration 2
Moving mesh using displacement scaling : min:0.5625  max:1
Checking faces in error :
    non-orthogonality > 65  degrees                        : 6
    faces with face pyramid volume < 1e-13                 : 0
    faces with face-decomposition tet quality < 1e-15      : 0
    faces with concavity > 80  degrees                     : 0
    faces with skewness > 4   (internal) or 20  (boundary) : 0
    faces with interpolation weights (0..1)  < 0.05        : 2
    faces with volume ratio of neighbour cells < 0.01      : 0
    faces with face twist < 0.02                           : 0
    faces on cells with determinant < 0.001                : 17
displacementMedialAxis : Iteration 3
displacementMedialAxis : Displacement scaling for error reduction set to 0.
Moving mesh using displacement scaling : min:0.421875  max:1
Checking faces in error :
    non-orthogonality > 65  degrees                        : 6
    faces with face pyramid volume < 1e-13                 : 0
    faces with face-decomposition tet quality < 1e-15      : 0
    faces with concavity > 80  degrees                     : 0
    faces with skewness > 4   (internal) or 20  (boundary) : 0
    faces with interpolation weights (0..1)  < 0.05        : 2
    faces with volume ratio of neighbour cells < 0.01      : 0
    faces with face twist < 0.02                           : 0
    faces on cells with determinant < 0.001                : 0
displacementMedialAxis : Iteration 4
Moving mesh using displacement scaling : min:0  max:1
Checking faces in error :
    non-orthogonality > 65  degrees                        : 0
    faces with face pyramid volume < 1e-13                 : 0
    faces with face-decomposition tet quality < 1e-15      : 0
    faces with concavity > 80  degrees                     : 0
    faces with skewness > 4   (internal) or 20  (boundary) : 0
    faces with interpolation weights (0..1)  < 0.05        : 0
    faces with volume ratio of neighbour cells < 0.01      : 0
    faces with face twist < 0.02                           : 0
    faces on cells with determinant < 0.001                : 0
displacementMedialAxis : Successfully moved mesh
displacementMedialAxis : Finished moving mesh ...
truncateDisplacement : Unextruded 0 faces due to non-consecutive vertices being extruded.
truncateDisplacement : Unextruded 0 faces due to stringed edges with inconsistent extrusion.

Setting up information for layer truncation ...

Checking mesh with layer ...
Checking faces in error :
    non-orthogonality > 65  degrees                        : 0
    faces with face pyramid volume < 1e-13                 : 0
    faces with face-decomposition tet quality < 1e-15      : 0
    faces with concavity > 80  degrees                     : 0
    faces with skewness > 4   (internal) or 20  (boundary) : 0
    faces with interpolation weights (0..1)  < 0.05        : 0
    faces with volume ratio of neighbour cells < 0.01      : 0
    faces with face twist < 0.02                           : 0
    faces on cells with determinant < 0.001                : 0
Detected 0 illegal faces (concave, zero area or negative cell pyramid volume)
Extruding 1920 out of 1920 faces (100%). Removed extrusion at 0 faces.
Added 5760 out of 5760 cells (100%).
Edge intersection testing:
    Number of edges             : 4850396
    Number of edges to retest   : 0
    Number of intersected edges : 11104

Doing final balancing
---------------------


Writing fields with layer information:
    nSurfaceLayers    : actual number of layers
    thickness         : overall layer thickness
    thicknessFraction : overall layer thickness (fraction of desired thickness)


patch         faces    layers   overall thickness
                                [m]       [%]
-----         -----    ------   ---       ---
splitterFront 1536     3        0.000364  100     
splitterRight 192      3        0.000349  95.8    
splitterLeft  192      3        0.000349  95.8    

Layer mesh : cells:1597599  faces:4850396  points:1655675
Cells per refinement level:
    0	30384
    1	13223
    2	55240
    3	1498752
Writing mesh to time 3
Wrote mesh in = 35.54 s.
Layers added in = 35.54 s.
Checking final mesh ...
Checking faces in error :
    non-orthogonality > 65  degrees                        : 0
    faces with face pyramid volume < 1e-13                 : 0
    faces with face-decomposition tet quality < 1e-15      : 0
    faces with concavity > 80  degrees                     : 0
    faces with skewness > 4   (internal) or 20  (boundary) : 0
    faces with interpolation weights (0..1)  < 0.05        : 0
    faces with volume ratio of neighbour cells < 0.01      : 0
    faces with face twist < 0.02                           : 0
    faces on cells with determinant < 0.001                : 0
Finished meshing without any errors
Finished meshing in = 930.21 s.
End

Finalising parallel run
