/*---------------------------------------------------------------------------*\
  =========                 |
  \\      /  F ield         | OpenFOAM: The Open Source CFD Toolbox
   \\    /   O peration     | Website:  https://openfoam.org
    \\  /    A nd           | Version:  8
     \\/     M anipulation  |
\*---------------------------------------------------------------------------*/
Build  : 8-9b73cf21a682
Exec   : blockMesh
Date   : Nov 16 2020
Time   : 11:58:55
Host   : "bc8e23000998"
PID    : 9682
I/O    : uncollated
Case   : /home/student/OpenFOAM/student-8/run/Shared_CTTP/testAme/3D
nProcs : 1
sigFpe : Enabling floating point exception trapping (FOAM_SIGFPE).
fileModificationChecking : Monitoring run-time modified files using timeStampMaster (fileModificationSkew 10)
allowSystemOperations : Allowing user-supplied system call operations

// * * * * * * * * * * * * * * * * * * * * * * * * * * * * * * * * * * * * * //
Create time

Creating block mesh from
    "system/blockMeshDict"
Using #calcEntry at line 30 in file "/home/student/OpenFOAM/student-8/run/Shared_CTTP/testAme/3D/system/blockMeshDict"
Using #codeStream with "/home/student/OpenFOAM/student-8/run/Shared_CTTP/testAme/3D/dynamicCode/platforms/linux64GccDPInt32Opt/lib/libcodeStream_e67549a6caeaae739fb865ffedcb311f529500b2.so"
Creating new library in "dynamicCode/_e67549a6caeaae739fb865ffedcb311f529500b2/platforms/linux64GccDPInt32Opt/lib/libcodeStream_e67549a6caeaae739fb865ffedcb311f529500b2.so"
Invoking "wmake -s libso /home/student/OpenFOAM/student-8/run/Shared_CTTP/testAme/3D/dynamicCode/_e67549a6caeaae739fb865ffedcb311f529500b2"
wmake libso /home/student/OpenFOAM/student-8/run/Shared_CTTP/testAme/3D/dynamicCode/_e67549a6caeaae739fb865ffedcb311f529500b2
make: Warning: File 'Make/options' has modification time 0.19 s in the future
make: Warning: File 'Make/linux64GccDPInt32Opt/options' has modification time 0.24 s in the future
make: warning:  Clock skew detected.  Your build may be incomplete.
make: Warning: File 'Make/linux64GccDPInt32Opt/options' has modification time 0.17 s in the future
make: warning:  Clock skew detected.  Your build may be incomplete.
make: Warning: File 'Make/linux64GccDPInt32Opt/sourceFiles' has modification time 0.22 s in the future
    ln: ./lnInclude
make: warning:  Clock skew detected.  Your build may be incomplete.
make: Warning: File 'Make/linux64GccDPInt32Opt/sourceFiles' has modification time 0.11 s in the future
    wmkdep: codeStreamTemplate.C
make: Warning: File 'Make/linux64GccDPInt32Opt/codeStreamTemplate.C.dep' has modification time 0.22 s in the future
    Ctoo: codeStreamTemplate.C
    ld: /home/student/OpenFOAM/student-8/run/Shared_CTTP/testAme/3D/dynamicCode/_e67549a6caeaae739fb865ffedcb311f529500b2/../platforms/linux64GccDPInt32Opt/lib/libcodeStream_e67549a6caeaae739fb865ffedcb311f529500b2.so
make: warning:  Clock skew detected.  Your build may be incomplete.
Using #calcEntry at line 32 in file "/home/student/OpenFOAM/student-8/run/Shared_CTTP/testAme/3D/system/blockMeshDict"
Using #calcEntry at line 37 in file "/home/student/OpenFOAM/student-8/run/Shared_CTTP/testAme/3D/system/blockMeshDict"
Using #codeStream with "/home/student/OpenFOAM/student-8/run/Shared_CTTP/testAme/3D/dynamicCode/platforms/linux64GccDPInt32Opt/lib/libcodeStream_c393accad93291e43ec28539a2c40298dd2968f7.so"
Creating new library in "dynamicCode/_c393accad93291e43ec28539a2c40298dd2968f7/platforms/linux64GccDPInt32Opt/lib/libcodeStream_c393accad93291e43ec28539a2c40298dd2968f7.so"
Invoking "wmake -s libso /home/student/OpenFOAM/student-8/run/Shared_CTTP/testAme/3D/dynamicCode/_c393accad93291e43ec28539a2c40298dd2968f7"
wmake libso /home/student/OpenFOAM/student-8/run/Shared_CTTP/testAme/3D/dynamicCode/_c393accad93291e43ec28539a2c40298dd2968f7
make: Warning: File 'Make/options' has modification time 0.2 s in the future
make: Warning: File 'Make/linux64GccDPInt32Opt/options' has modification time 0.23 s in the future
make: warning:  Clock skew detected.  Your build may be incomplete.
make: Warning: File 'Make/linux64GccDPInt32Opt/options' has modification time 0.17 s in the future
make: warning:  Clock skew detected.  Your build may be incomplete.
make: Warning: File 'Make/linux64GccDPInt32Opt/sourceFiles' has modification time 0.22 s in the future
    ln: ./lnInclude
make: warning:  Clock skew detected.  Your build may be incomplete.
make: Warning: File 'Make/linux64GccDPInt32Opt/sourceFiles' has modification time 0.12 s in the future
    wmkdep: codeStreamTemplate.C
make: Warning: File 'Make/linux64GccDPInt32Opt/codeStreamTemplate.C.dep' has modification time 0.22 s in the future
    Ctoo: codeStreamTemplate.C
    ld: /home/student/OpenFOAM/student-8/run/Shared_CTTP/testAme/3D/dynamicCode/_c393accad93291e43ec28539a2c40298dd2968f7/../platforms/linux64GccDPInt32Opt/lib/libcodeStream_c393accad93291e43ec28539a2c40298dd2968f7.so
make: warning:  Clock skew detected.  Your build may be incomplete.
Using #calcEntry at line 38 in file "/home/student/OpenFOAM/student-8/run/Shared_CTTP/testAme/3D/system/blockMeshDict"
Using #codeStream with "/home/student/OpenFOAM/student-8/run/Shared_CTTP/testAme/3D/dynamicCode/platforms/linux64GccDPInt32Opt/lib/libcodeStream_77d56b0dc41bfc827663e203af9fec9d0a0b69c1.so"
Creating new library in "dynamicCode/_77d56b0dc41bfc827663e203af9fec9d0a0b69c1/platforms/linux64GccDPInt32Opt/lib/libcodeStream_77d56b0dc41bfc827663e203af9fec9d0a0b69c1.so"
Invoking "wmake -s libso /home/student/OpenFOAM/student-8/run/Shared_CTTP/testAme/3D/dynamicCode/_77d56b0dc41bfc827663e203af9fec9d0a0b69c1"
wmake libso /home/student/OpenFOAM/student-8/run/Shared_CTTP/testAme/3D/dynamicCode/_77d56b0dc41bfc827663e203af9fec9d0a0b69c1
make: Warning: File 'Make/options' has modification time 0.19 s in the future
make: Warning: File 'Make/linux64GccDPInt32Opt/options' has modification time 0.24 s in the future
make: warning:  Clock skew detected.  Your build may be incomplete.
make: Warning: File 'Make/linux64GccDPInt32Opt/options' has modification time 0.16 s in the future
make: warning:  Clock skew detected.  Your build may be incomplete.
make: Warning: File 'Make/linux64GccDPInt32Opt/sourceFiles' has modification time 0.22 s in the future
    ln: ./lnInclude
make: warning:  Clock skew detected.  Your build may be incomplete.
make: Warning: File 'Make/linux64GccDPInt32Opt/sourceFiles' has modification time 0.12 s in the future
    wmkdep: codeStreamTemplate.C
make: Warning: File 'Make/linux64GccDPInt32Opt/codeStreamTemplate.C.dep' has modification time 0.22 s in the future
    Ctoo: codeStreamTemplate.C
    ld: /home/student/OpenFOAM/student-8/run/Shared_CTTP/testAme/3D/dynamicCode/_77d56b0dc41bfc827663e203af9fec9d0a0b69c1/../platforms/linux64GccDPInt32Opt/lib/libcodeStream_77d56b0dc41bfc827663e203af9fec9d0a0b69c1.so
make: warning:  Clock skew detected.  Your build may be incomplete.
Using #calcEntry at line 39 in file "/home/student/OpenFOAM/student-8/run/Shared_CTTP/testAme/3D/system/blockMeshDict"
Using #codeStream with "/home/student/OpenFOAM/student-8/run/Shared_CTTP/testAme/3D/dynamicCode/platforms/linux64GccDPInt32Opt/lib/libcodeStream_71d4552fca01210cac4afb65e6947572fa1e9b56.so"
Creating new library in "dynamicCode/_71d4552fca01210cac4afb65e6947572fa1e9b56/platforms/linux64GccDPInt32Opt/lib/libcodeStream_71d4552fca01210cac4afb65e6947572fa1e9b56.so"
Invoking "wmake -s libso /home/student/OpenFOAM/student-8/run/Shared_CTTP/testAme/3D/dynamicCode/_71d4552fca01210cac4afb65e6947572fa1e9b56"
wmake libso /home/student/OpenFOAM/student-8/run/Shared_CTTP/testAme/3D/dynamicCode/_71d4552fca01210cac4afb65e6947572fa1e9b56
make: Warning: File 'Make/options' has modification time 0.2 s in the future
make: Warning: File 'Make/linux64GccDPInt32Opt/options' has modification time 0.24 s in the future
make: warning:  Clock skew detected.  Your build may be incomplete.
make: Warning: File 'Make/linux64GccDPInt32Opt/options' has modification time 0.18 s in the future
make: warning:  Clock skew detected.  Your build may be incomplete.
make: Warning: File 'Make/linux64GccDPInt32Opt/sourceFiles' has modification time 0.22 s in the future
    ln: ./lnInclude
make: warning:  Clock skew detected.  Your build may be incomplete.
make: Warning: File 'Make/linux64GccDPInt32Opt/sourceFiles' has modification time 0.11 s in the future
    wmkdep: codeStreamTemplate.C
make: Warning: File 'Make/linux64GccDPInt32Opt/codeStreamTemplate.C.dep' has modification time 0.22 s in the future
    Ctoo: codeStreamTemplate.C
    ld: /home/student/OpenFOAM/student-8/run/Shared_CTTP/testAme/3D/dynamicCode/_71d4552fca01210cac4afb65e6947572fa1e9b56/../platforms/linux64GccDPInt32Opt/lib/libcodeStream_71d4552fca01210cac4afb65e6947572fa1e9b56.so
make: warning:  Clock skew detected.  Your build may be incomplete.
Using #calcEntry at line 40 in file "/home/student/OpenFOAM/student-8/run/Shared_CTTP/testAme/3D/system/blockMeshDict"
Using #codeStream with "/home/student/OpenFOAM/student-8/run/Shared_CTTP/testAme/3D/dynamicCode/platforms/linux64GccDPInt32Opt/lib/libcodeStream_f05dc7186b43ac3482aa67630eadd2a74b06bb5a.so"
Creating new library in "dynamicCode/_f05dc7186b43ac3482aa67630eadd2a74b06bb5a/platforms/linux64GccDPInt32Opt/lib/libcodeStream_f05dc7186b43ac3482aa67630eadd2a74b06bb5a.so"
Invoking "wmake -s libso /home/student/OpenFOAM/student-8/run/Shared_CTTP/testAme/3D/dynamicCode/_f05dc7186b43ac3482aa67630eadd2a74b06bb5a"
wmake libso /home/student/OpenFOAM/student-8/run/Shared_CTTP/testAme/3D/dynamicCode/_f05dc7186b43ac3482aa67630eadd2a74b06bb5a
make: Warning: File 'Make/options' has modification time 0.19 s in the future
make: Warning: File 'Make/linux64GccDPInt32Opt/options' has modification time 0.23 s in the future
make: warning:  Clock skew detected.  Your build may be incomplete.
make: Warning: File 'Make/linux64GccDPInt32Opt/options' has modification time 0.16 s in the future
make: warning:  Clock skew detected.  Your build may be incomplete.
make: Warning: File 'Make/linux64GccDPInt32Opt/sourceFiles' has modification time 0.23 s in the future
    ln: ./lnInclude
make: warning:  Clock skew detected.  Your build may be incomplete.
make: Warning: File 'Make/linux64GccDPInt32Opt/sourceFiles' has modification time 0.12 s in the future
    wmkdep: codeStreamTemplate.C
make: Warning: File 'Make/linux64GccDPInt32Opt/codeStreamTemplate.C.dep' has modification time 0.22 s in the future
    Ctoo: codeStreamTemplate.C
    ld: /home/student/OpenFOAM/student-8/run/Shared_CTTP/testAme/3D/dynamicCode/_f05dc7186b43ac3482aa67630eadd2a74b06bb5a/../platforms/linux64GccDPInt32Opt/lib/libcodeStream_f05dc7186b43ac3482aa67630eadd2a74b06bb5a.so
make: warning:  Clock skew detected.  Your build may be incomplete.
Using #calcEntry at line 41 in file "/home/student/OpenFOAM/student-8/run/Shared_CTTP/testAme/3D/system/blockMeshDict"
Using #codeStream with "/home/student/OpenFOAM/student-8/run/Shared_CTTP/testAme/3D/dynamicCode/platforms/linux64GccDPInt32Opt/lib/libcodeStream_b801cc1cf43dadfd621cf2fbced3b56a0c9f6d6c.so"
Creating new library in "dynamicCode/_b801cc1cf43dadfd621cf2fbced3b56a0c9f6d6c/platforms/linux64GccDPInt32Opt/lib/libcodeStream_b801cc1cf43dadfd621cf2fbced3b56a0c9f6d6c.so"
Invoking "wmake -s libso /home/student/OpenFOAM/student-8/run/Shared_CTTP/testAme/3D/dynamicCode/_b801cc1cf43dadfd621cf2fbced3b56a0c9f6d6c"
wmake libso /home/student/OpenFOAM/student-8/run/Shared_CTTP/testAme/3D/dynamicCode/_b801cc1cf43dadfd621cf2fbced3b56a0c9f6d6c
make: Warning: File 'Make/options' has modification time 0.2 s in the future
make: Warning: File 'Make/linux64GccDPInt32Opt/options' has modification time 0.24 s in the future
make: warning:  Clock skew detected.  Your build may be incomplete.
make: Warning: File 'Make/linux64GccDPInt32Opt/options' has modification time 0.17 s in the future
make: warning:  Clock skew detected.  Your build may be incomplete.
make: Warning: File 'Make/linux64GccDPInt32Opt/sourceFiles' has modification time 0.22 s in the future
    ln: ./lnInclude
make: warning:  Clock skew detected.  Your build may be incomplete.
make: Warning: File 'Make/linux64GccDPInt32Opt/sourceFiles' has modification time 0.12 s in the future
    wmkdep: codeStreamTemplate.C
make: Warning: File 'Make/linux64GccDPInt32Opt/codeStreamTemplate.C.dep' has modification time 0.22 s in the future
    Ctoo: codeStreamTemplate.C
    ld: /home/student/OpenFOAM/student-8/run/Shared_CTTP/testAme/3D/dynamicCode/_b801cc1cf43dadfd621cf2fbced3b56a0c9f6d6c/../platforms/linux64GccDPInt32Opt/lib/libcodeStream_b801cc1cf43dadfd621cf2fbced3b56a0c9f6d6c.so
make: warning:  Clock skew detected.  Your build may be incomplete.
Using #calcEntry at line 42 in file "/home/student/OpenFOAM/student-8/run/Shared_CTTP/testAme/3D/system/blockMeshDict"
Using #codeStream with "/home/student/OpenFOAM/student-8/run/Shared_CTTP/testAme/3D/dynamicCode/platforms/linux64GccDPInt32Opt/lib/libcodeStream_a630749c42d5467c1ffe21482cbe246b5c85ed57.so"
Creating new library in "dynamicCode/_a630749c42d5467c1ffe21482cbe246b5c85ed57/platforms/linux64GccDPInt32Opt/lib/libcodeStream_a630749c42d5467c1ffe21482cbe246b5c85ed57.so"
Invoking "wmake -s libso /home/student/OpenFOAM/student-8/run/Shared_CTTP/testAme/3D/dynamicCode/_a630749c42d5467c1ffe21482cbe246b5c85ed57"
wmake libso /home/student/OpenFOAM/student-8/run/Shared_CTTP/testAme/3D/dynamicCode/_a630749c42d5467c1ffe21482cbe246b5c85ed57
make: Warning: File 'Make/options' has modification time 0.19 s in the future
make: Warning: File 'Make/linux64GccDPInt32Opt/options' has modification time 0.24 s in the future
make: warning:  Clock skew detected.  Your build may be incomplete.
make: Warning: File 'Make/linux64GccDPInt32Opt/options' has modification time 0.17 s in the future
make: warning:  Clock skew detected.  Your build may be incomplete.
make: Warning: File 'Make/linux64GccDPInt32Opt/sourceFiles' has modification time 0.22 s in the future
    ln: ./lnInclude
make: warning:  Clock skew detected.  Your build may be incomplete.
make: Warning: File 'Make/linux64GccDPInt32Opt/sourceFiles' has modification time 0.12 s in the future
    wmkdep: codeStreamTemplate.C
make: Warning: File 'Make/linux64GccDPInt32Opt/codeStreamTemplate.C.dep' has modification time 0.22 s in the future
    Ctoo: codeStreamTemplate.C
    ld: /home/student/OpenFOAM/student-8/run/Shared_CTTP/testAme/3D/dynamicCode/_a630749c42d5467c1ffe21482cbe246b5c85ed57/../platforms/linux64GccDPInt32Opt/lib/libcodeStream_a630749c42d5467c1ffe21482cbe246b5c85ed57.so
make: warning:  Clock skew detected.  Your build may be incomplete.
Using #calcEntry at line 43 in file "/home/student/OpenFOAM/student-8/run/Shared_CTTP/testAme/3D/system/blockMeshDict"
Using #codeStream with "/home/student/OpenFOAM/student-8/run/Shared_CTTP/testAme/3D/dynamicCode/platforms/linux64GccDPInt32Opt/lib/libcodeStream_804bbeccfd2553c23ff663136c343db242e638f9.so"
Creating new library in "dynamicCode/_804bbeccfd2553c23ff663136c343db242e638f9/platforms/linux64GccDPInt32Opt/lib/libcodeStream_804bbeccfd2553c23ff663136c343db242e638f9.so"
Invoking "wmake -s libso /home/student/OpenFOAM/student-8/run/Shared_CTTP/testAme/3D/dynamicCode/_804bbeccfd2553c23ff663136c343db242e638f9"
wmake libso /home/student/OpenFOAM/student-8/run/Shared_CTTP/testAme/3D/dynamicCode/_804bbeccfd2553c23ff663136c343db242e638f9
make: Warning: File 'Make/options' has modification time 0.2 s in the future
make: Warning: File 'Make/linux64GccDPInt32Opt/options' has modification time 0.24 s in the future
make: warning:  Clock skew detected.  Your build may be incomplete.
make: Warning: File 'Make/linux64GccDPInt32Opt/options' has modification time 0.18 s in the future
make: warning:  Clock skew detected.  Your build may be incomplete.
make: Warning: File 'Make/linux64GccDPInt32Opt/sourceFiles' has modification time 0.23 s in the future
    ln: ./lnInclude
make: warning:  Clock skew detected.  Your build may be incomplete.
make: Warning: File 'Make/linux64GccDPInt32Opt/sourceFiles' has modification time 0.13 s in the future
    wmkdep: codeStreamTemplate.C
make: Warning: File 'Make/linux64GccDPInt32Opt/codeStreamTemplate.C.dep' has modification time 0.22 s in the future
    Ctoo: codeStreamTemplate.C
    ld: /home/student/OpenFOAM/student-8/run/Shared_CTTP/testAme/3D/dynamicCode/_804bbeccfd2553c23ff663136c343db242e638f9/../platforms/linux64GccDPInt32Opt/lib/libcodeStream_804bbeccfd2553c23ff663136c343db242e638f9.so
make: warning:  Clock skew detected.  Your build may be incomplete.
Using #calcEntry at line 44 in file "/home/student/OpenFOAM/student-8/run/Shared_CTTP/testAme/3D/system/blockMeshDict"
Using #codeStream with "/home/student/OpenFOAM/student-8/run/Shared_CTTP/testAme/3D/dynamicCode/platforms/linux64GccDPInt32Opt/lib/libcodeStream_354cc060b463e0166a45f89ca2c5e5cf80f57f51.so"
Creating new library in "dynamicCode/_354cc060b463e0166a45f89ca2c5e5cf80f57f51/platforms/linux64GccDPInt32Opt/lib/libcodeStream_354cc060b463e0166a45f89ca2c5e5cf80f57f51.so"
Invoking "wmake -s libso /home/student/OpenFOAM/student-8/run/Shared_CTTP/testAme/3D/dynamicCode/_354cc060b463e0166a45f89ca2c5e5cf80f57f51"
wmake libso /home/student/OpenFOAM/student-8/run/Shared_CTTP/testAme/3D/dynamicCode/_354cc060b463e0166a45f89ca2c5e5cf80f57f51
make: Warning: File 'Make/options' has modification time 0.2 s in the future
make: Warning: File 'Make/linux64GccDPInt32Opt/options' has modification time 0.24 s in the future
make: warning:  Clock skew detected.  Your build may be incomplete.
make: Warning: File 'Make/linux64GccDPInt32Opt/options' has modification time 0.18 s in the future
make: warning:  Clock skew detected.  Your build may be incomplete.
make: Warning: File 'Make/linux64GccDPInt32Opt/sourceFiles' has modification time 0.22 s in the future
    ln: ./lnInclude
make: warning:  Clock skew detected.  Your build may be incomplete.
make: Warning: File 'Make/linux64GccDPInt32Opt/sourceFiles' has modification time 0.11 s in the future
    wmkdep: codeStreamTemplate.C
make: Warning: File 'Make/linux64GccDPInt32Opt/codeStreamTemplate.C.dep' has modification time 0.22 s in the future
    Ctoo: codeStreamTemplate.C
    ld: /home/student/OpenFOAM/student-8/run/Shared_CTTP/testAme/3D/dynamicCode/_354cc060b463e0166a45f89ca2c5e5cf80f57f51/../platforms/linux64GccDPInt32Opt/lib/libcodeStream_354cc060b463e0166a45f89ca2c5e5cf80f57f51.so
make: warning:  Clock skew detected.  Your build may be incomplete.
Using #calcEntry at line 48 in file "/home/student/OpenFOAM/student-8/run/Shared_CTTP/testAme/3D/system/blockMeshDict"
Using #codeStream with "/home/student/OpenFOAM/student-8/run/Shared_CTTP/testAme/3D/dynamicCode/platforms/linux64GccDPInt32Opt/lib/libcodeStream_5d9ba12f2111c872f071ff11b1d4ce3c84c7745e.so"
Creating new library in "dynamicCode/_5d9ba12f2111c872f071ff11b1d4ce3c84c7745e/platforms/linux64GccDPInt32Opt/lib/libcodeStream_5d9ba12f2111c872f071ff11b1d4ce3c84c7745e.so"
Invoking "wmake -s libso /home/student/OpenFOAM/student-8/run/Shared_CTTP/testAme/3D/dynamicCode/_5d9ba12f2111c872f071ff11b1d4ce3c84c7745e"
wmake libso /home/student/OpenFOAM/student-8/run/Shared_CTTP/testAme/3D/dynamicCode/_5d9ba12f2111c872f071ff11b1d4ce3c84c7745e
make: Warning: File 'Make/options' has modification time 0.2 s in the future
make: Warning: File 'Make/linux64GccDPInt32Opt/options' has modification time 0.24 s in the future
make: warning:  Clock skew detected.  Your build may be incomplete.
make: Warning: File 'Make/linux64GccDPInt32Opt/options' has modification time 0.18 s in the future
make: warning:  Clock skew detected.  Your build may be incomplete.
make: Warning: File 'Make/linux64GccDPInt32Opt/sourceFiles' has modification time 0.23 s in the future
    ln: ./lnInclude
make: warning:  Clock skew detected.  Your build may be incomplete.
make: Warning: File 'Make/linux64GccDPInt32Opt/sourceFiles' has modification time 0.12 s in the future
    wmkdep: codeStreamTemplate.C
make: Warning: File 'Make/linux64GccDPInt32Opt/codeStreamTemplate.C.dep' has modification time 0.22 s in the future
    Ctoo: codeStreamTemplate.C
    ld: /home/student/OpenFOAM/student-8/run/Shared_CTTP/testAme/3D/dynamicCode/_5d9ba12f2111c872f071ff11b1d4ce3c84c7745e/../platforms/linux64GccDPInt32Opt/lib/libcodeStream_5d9ba12f2111c872f071ff11b1d4ce3c84c7745e.so
make: warning:  Clock skew detected.  Your build may be incomplete.
Using #calcEntry at line 49 in file "/home/student/OpenFOAM/student-8/run/Shared_CTTP/testAme/3D/system/blockMeshDict"
Using #codeStream with "/home/student/OpenFOAM/student-8/run/Shared_CTTP/testAme/3D/dynamicCode/platforms/linux64GccDPInt32Opt/lib/libcodeStream_fb16bd2c45d4a71b38ab95607d0a36252b5fc3fe.so"
Creating new library in "dynamicCode/_fb16bd2c45d4a71b38ab95607d0a36252b5fc3fe/platforms/linux64GccDPInt32Opt/lib/libcodeStream_fb16bd2c45d4a71b38ab95607d0a36252b5fc3fe.so"
Invoking "wmake -s libso /home/student/OpenFOAM/student-8/run/Shared_CTTP/testAme/3D/dynamicCode/_fb16bd2c45d4a71b38ab95607d0a36252b5fc3fe"
wmake libso /home/student/OpenFOAM/student-8/run/Shared_CTTP/testAme/3D/dynamicCode/_fb16bd2c45d4a71b38ab95607d0a36252b5fc3fe
make: Warning: File 'Make/options' has modification time 0.2 s in the future
make: Warning: File 'Make/linux64GccDPInt32Opt/options' has modification time 0.23 s in the future
make: warning:  Clock skew detected.  Your build may be incomplete.
make: Warning: File 'Make/linux64GccDPInt32Opt/options' has modification time 0.16 s in the future
make: warning:  Clock skew detected.  Your build may be incomplete.
make: Warning: File 'Make/linux64GccDPInt32Opt/sourceFiles' has modification time 0.22 s in the future
    ln: ./lnInclude
make: warning:  Clock skew detected.  Your build may be incomplete.
make: Warning: File 'Make/linux64GccDPInt32Opt/sourceFiles' has modification time 0.1 s in the future
    wmkdep: codeStreamTemplate.C
make: Warning: File 'Make/linux64GccDPInt32Opt/codeStreamTemplate.C.dep' has modification time 0.21 s in the future
    Ctoo: codeStreamTemplate.C
    ld: /home/student/OpenFOAM/student-8/run/Shared_CTTP/testAme/3D/dynamicCode/_fb16bd2c45d4a71b38ab95607d0a36252b5fc3fe/../platforms/linux64GccDPInt32Opt/lib/libcodeStream_fb16bd2c45d4a71b38ab95607d0a36252b5fc3fe.so
make: warning:  Clock skew detected.  Your build may be incomplete.
Using #calcEntry at line 50 in file "/home/student/OpenFOAM/student-8/run/Shared_CTTP/testAme/3D/system/blockMeshDict"
Using #codeStream with "/home/student/OpenFOAM/student-8/run/Shared_CTTP/testAme/3D/dynamicCode/platforms/linux64GccDPInt32Opt/lib/libcodeStream_5431d3043cfc39e2e78c0651ffd20e95fa5dba13.so"
Creating new library in "dynamicCode/_5431d3043cfc39e2e78c0651ffd20e95fa5dba13/platforms/linux64GccDPInt32Opt/lib/libcodeStream_5431d3043cfc39e2e78c0651ffd20e95fa5dba13.so"
Invoking "wmake -s libso /home/student/OpenFOAM/student-8/run/Shared_CTTP/testAme/3D/dynamicCode/_5431d3043cfc39e2e78c0651ffd20e95fa5dba13"
wmake libso /home/student/OpenFOAM/student-8/run/Shared_CTTP/testAme/3D/dynamicCode/_5431d3043cfc39e2e78c0651ffd20e95fa5dba13
make: Warning: File 'Make/options' has modification time 0.2 s in the future
make: Warning: File 'Make/linux64GccDPInt32Opt/options' has modification time 0.24 s in the future
make: warning:  Clock skew detected.  Your build may be incomplete.
make: Warning: File 'Make/linux64GccDPInt32Opt/options' has modification time 0.18 s in the future
make: warning:  Clock skew detected.  Your build may be incomplete.
make: Warning: File 'Make/linux64GccDPInt32Opt/sourceFiles' has modification time 0.23 s in the future
    ln: ./lnInclude
make: warning:  Clock skew detected.  Your build may be incomplete.
make: Warning: File 'Make/linux64GccDPInt32Opt/sourceFiles' has modification time 0.12 s in the future
    wmkdep: codeStreamTemplate.C
make: Warning: File 'Make/linux64GccDPInt32Opt/codeStreamTemplate.C.dep' has modification time 0.23 s in the future
    Ctoo: codeStreamTemplate.C
    ld: /home/student/OpenFOAM/student-8/run/Shared_CTTP/testAme/3D/dynamicCode/_5431d3043cfc39e2e78c0651ffd20e95fa5dba13/../platforms/linux64GccDPInt32Opt/lib/libcodeStream_5431d3043cfc39e2e78c0651ffd20e95fa5dba13.so
make: warning:  Clock skew detected.  Your build may be incomplete.
Using #calcEntry at line 51 in file "/home/student/OpenFOAM/student-8/run/Shared_CTTP/testAme/3D/system/blockMeshDict"
Using #codeStream with "/home/student/OpenFOAM/student-8/run/Shared_CTTP/testAme/3D/dynamicCode/platforms/linux64GccDPInt32Opt/lib/libcodeStream_5fef4afa95a55e2a438ae69d3a38264b2d77a421.so"
Creating new library in "dynamicCode/_5fef4afa95a55e2a438ae69d3a38264b2d77a421/platforms/linux64GccDPInt32Opt/lib/libcodeStream_5fef4afa95a55e2a438ae69d3a38264b2d77a421.so"
Invoking "wmake -s libso /home/student/OpenFOAM/student-8/run/Shared_CTTP/testAme/3D/dynamicCode/_5fef4afa95a55e2a438ae69d3a38264b2d77a421"
wmake libso /home/student/OpenFOAM/student-8/run/Shared_CTTP/testAme/3D/dynamicCode/_5fef4afa95a55e2a438ae69d3a38264b2d77a421
make: Warning: File 'Make/options' has modification time 0.2 s in the future
make: Warning: File 'Make/linux64GccDPInt32Opt/options' has modification time 0.24 s in the future
make: warning:  Clock skew detected.  Your build may be incomplete.
make: Warning: File 'Make/linux64GccDPInt32Opt/options' has modification time 0.17 s in the future
make: warning:  Clock skew detected.  Your build may be incomplete.
make: Warning: File 'Make/linux64GccDPInt32Opt/sourceFiles' has modification time 0.21 s in the future
    ln: ./lnInclude
make: warning:  Clock skew detected.  Your build may be incomplete.
make: Warning: File 'Make/linux64GccDPInt32Opt/sourceFiles' has modification time 0.095 s in the future
    wmkdep: codeStreamTemplate.C
make: Warning: File 'Make/linux64GccDPInt32Opt/codeStreamTemplate.C.dep' has modification time 0.23 s in the future
    Ctoo: codeStreamTemplate.C
    ld: /home/student/OpenFOAM/student-8/run/Shared_CTTP/testAme/3D/dynamicCode/_5fef4afa95a55e2a438ae69d3a38264b2d77a421/../platforms/linux64GccDPInt32Opt/lib/libcodeStream_5fef4afa95a55e2a438ae69d3a38264b2d77a421.so
make: warning:  Clock skew detected.  Your build may be incomplete.
Using #calcEntry at line 52 in file "/home/student/OpenFOAM/student-8/run/Shared_CTTP/testAme/3D/system/blockMeshDict"
Using #codeStream with "/home/student/OpenFOAM/student-8/run/Shared_CTTP/testAme/3D/dynamicCode/platforms/linux64GccDPInt32Opt/lib/libcodeStream_8300709f88d33a8ae26c5095ea4f7fadbf69f1d6.so"
Creating new library in "dynamicCode/_8300709f88d33a8ae26c5095ea4f7fadbf69f1d6/platforms/linux64GccDPInt32Opt/lib/libcodeStream_8300709f88d33a8ae26c5095ea4f7fadbf69f1d6.so"
Invoking "wmake -s libso /home/student/OpenFOAM/student-8/run/Shared_CTTP/testAme/3D/dynamicCode/_8300709f88d33a8ae26c5095ea4f7fadbf69f1d6"
wmake libso /home/student/OpenFOAM/student-8/run/Shared_CTTP/testAme/3D/dynamicCode/_8300709f88d33a8ae26c5095ea4f7fadbf69f1d6
make: Warning: File 'Make/options' has modification time 0.2 s in the future
make: Warning: File 'Make/linux64GccDPInt32Opt/options' has modification time 0.24 s in the future
make: warning:  Clock skew detected.  Your build may be incomplete.
make: Warning: File 'Make/linux64GccDPInt32Opt/options' has modification time 0.18 s in the future
make: warning:  Clock skew detected.  Your build may be incomplete.
make: Warning: File 'Make/linux64GccDPInt32Opt/sourceFiles' has modification time 0.23 s in the future
    ln: ./lnInclude
make: warning:  Clock skew detected.  Your build may be incomplete.
make: Warning: File 'Make/linux64GccDPInt32Opt/sourceFiles' has modification time 0.12 s in the future
    wmkdep: codeStreamTemplate.C
make: Warning: File 'Make/linux64GccDPInt32Opt/codeStreamTemplate.C.dep' has modification time 0.22 s in the future
    Ctoo: codeStreamTemplate.C
    ld: /home/student/OpenFOAM/student-8/run/Shared_CTTP/testAme/3D/dynamicCode/_8300709f88d33a8ae26c5095ea4f7fadbf69f1d6/../platforms/linux64GccDPInt32Opt/lib/libcodeStream_8300709f88d33a8ae26c5095ea4f7fadbf69f1d6.so
make: warning:  Clock skew detected.  Your build may be incomplete.
Using #calcEntry at line 53 in file "/home/student/OpenFOAM/student-8/run/Shared_CTTP/testAme/3D/system/blockMeshDict"
Using #codeStream with "/home/student/OpenFOAM/student-8/run/Shared_CTTP/testAme/3D/dynamicCode/platforms/linux64GccDPInt32Opt/lib/libcodeStream_51406453d9a760860cd4aeec9a8b02f304e51ad7.so"
Creating new library in "dynamicCode/_51406453d9a760860cd4aeec9a8b02f304e51ad7/platforms/linux64GccDPInt32Opt/lib/libcodeStream_51406453d9a760860cd4aeec9a8b02f304e51ad7.so"
Invoking "wmake -s libso /home/student/OpenFOAM/student-8/run/Shared_CTTP/testAme/3D/dynamicCode/_51406453d9a760860cd4aeec9a8b02f304e51ad7"
wmake libso /home/student/OpenFOAM/student-8/run/Shared_CTTP/testAme/3D/dynamicCode/_51406453d9a760860cd4aeec9a8b02f304e51ad7
make: Warning: File 'Make/options' has modification time 0.2 s in the future
make: Warning: File 'Make/linux64GccDPInt32Opt/options' has modification time 0.24 s in the future
make: warning:  Clock skew detected.  Your build may be incomplete.
make: Warning: File 'Make/linux64GccDPInt32Opt/options' has modification time 0.15 s in the future
make: warning:  Clock skew detected.  Your build may be incomplete.
make: Warning: File 'Make/linux64GccDPInt32Opt/sourceFiles' has modification time 0.22 s in the future
    ln: ./lnInclude
make: warning:  Clock skew detected.  Your build may be incomplete.
make: Warning: File 'Make/linux64GccDPInt32Opt/sourceFiles' has modification time 0.11 s in the future
    wmkdep: codeStreamTemplate.C
make: Warning: File 'Make/linux64GccDPInt32Opt/codeStreamTemplate.C.dep' has modification time 0.22 s in the future
    Ctoo: codeStreamTemplate.C
    ld: /home/student/OpenFOAM/student-8/run/Shared_CTTP/testAme/3D/dynamicCode/_51406453d9a760860cd4aeec9a8b02f304e51ad7/../platforms/linux64GccDPInt32Opt/lib/libcodeStream_51406453d9a760860cd4aeec9a8b02f304e51ad7.so
make: warning:  Clock skew detected.  Your build may be incomplete.
Using #calcEntry at line 54 in file "/home/student/OpenFOAM/student-8/run/Shared_CTTP/testAme/3D/system/blockMeshDict"
Using #codeStream with "/home/student/OpenFOAM/student-8/run/Shared_CTTP/testAme/3D/dynamicCode/platforms/linux64GccDPInt32Opt/lib/libcodeStream_63017bd0e935477e0b4293ad19959e63eae00850.so"
Creating new library in "dynamicCode/_63017bd0e935477e0b4293ad19959e63eae00850/platforms/linux64GccDPInt32Opt/lib/libcodeStream_63017bd0e935477e0b4293ad19959e63eae00850.so"
Invoking "wmake -s libso /home/student/OpenFOAM/student-8/run/Shared_CTTP/testAme/3D/dynamicCode/_63017bd0e935477e0b4293ad19959e63eae00850"
wmake libso /home/student/OpenFOAM/student-8/run/Shared_CTTP/testAme/3D/dynamicCode/_63017bd0e935477e0b4293ad19959e63eae00850
make: Warning: File 'Make/options' has modification time 0.2 s in the future
make: Warning: File 'Make/linux64GccDPInt32Opt/options' has modification time 0.24 s in the future
make: warning:  Clock skew detected.  Your build may be incomplete.
make: Warning: File 'Make/linux64GccDPInt32Opt/options' has modification time 0.17 s in the future
make: warning:  Clock skew detected.  Your build may be incomplete.
make: Warning: File 'Make/linux64GccDPInt32Opt/sourceFiles' has modification time 0.22 s in the future
    ln: ./lnInclude
make: warning:  Clock skew detected.  Your build may be incomplete.
make: Warning: File 'Make/linux64GccDPInt32Opt/sourceFiles' has modification time 0.12 s in the future
    wmkdep: codeStreamTemplate.C
make: Warning: File 'Make/linux64GccDPInt32Opt/codeStreamTemplate.C.dep' has modification time 0.22 s in the future
    Ctoo: codeStreamTemplate.C
    ld: /home/student/OpenFOAM/student-8/run/Shared_CTTP/testAme/3D/dynamicCode/_63017bd0e935477e0b4293ad19959e63eae00850/../platforms/linux64GccDPInt32Opt/lib/libcodeStream_63017bd0e935477e0b4293ad19959e63eae00850.so
make: warning:  Clock skew detected.  Your build may be incomplete.
Using #calcEntry at line 55 in file "/home/student/OpenFOAM/student-8/run/Shared_CTTP/testAme/3D/system/blockMeshDict"
Using #codeStream with "/home/student/OpenFOAM/student-8/run/Shared_CTTP/testAme/3D/dynamicCode/platforms/linux64GccDPInt32Opt/lib/libcodeStream_0d65514fbb5d839d4473dc1c5607ce04db2650fc.so"
Creating new library in "dynamicCode/_0d65514fbb5d839d4473dc1c5607ce04db2650fc/platforms/linux64GccDPInt32Opt/lib/libcodeStream_0d65514fbb5d839d4473dc1c5607ce04db2650fc.so"
Invoking "wmake -s libso /home/student/OpenFOAM/student-8/run/Shared_CTTP/testAme/3D/dynamicCode/_0d65514fbb5d839d4473dc1c5607ce04db2650fc"
wmake libso /home/student/OpenFOAM/student-8/run/Shared_CTTP/testAme/3D/dynamicCode/_0d65514fbb5d839d4473dc1c5607ce04db2650fc
make: Warning: File 'Make/options' has modification time 0.19 s in the future
make: Warning: File 'Make/linux64GccDPInt32Opt/options' has modification time 0.23 s in the future
make: warning:  Clock skew detected.  Your build may be incomplete.
make: Warning: File 'Make/linux64GccDPInt32Opt/options' has modification time 0.16 s in the future
make: warning:  Clock skew detected.  Your build may be incomplete.
make: Warning: File 'Make/linux64GccDPInt32Opt/sourceFiles' has modification time 0.22 s in the future
    ln: ./lnInclude
make: warning:  Clock skew detected.  Your build may be incomplete.
make: Warning: File 'Make/linux64GccDPInt32Opt/sourceFiles' has modification time 0.1 s in the future
    wmkdep: codeStreamTemplate.C
make: Warning: File 'Make/linux64GccDPInt32Opt/codeStreamTemplate.C.dep' has modification time 0.22 s in the future
    Ctoo: codeStreamTemplate.C
    ld: /home/student/OpenFOAM/student-8/run/Shared_CTTP/testAme/3D/dynamicCode/_0d65514fbb5d839d4473dc1c5607ce04db2650fc/../platforms/linux64GccDPInt32Opt/lib/libcodeStream_0d65514fbb5d839d4473dc1c5607ce04db2650fc.so
make: warning:  Clock skew detected.  Your build may be incomplete.
Creating block edges
No non-planar block faces defined
Creating topology blocks
Creating topology patches

Creating block mesh topology

Check topology

	Basic statistics
		Number of internal faces : 8
		Number of boundary faces : 14
		Number of defined boundary faces : 14
		Number of undefined boundary faces : 0
	Checking patch -> block consistency

Creating block offsets
Creating merge list .

Creating polyMesh from blockMesh
Creating patches
Creating cells
Creating points with scale 1
    Block 0 cell size :
        i : 0.01 .. 0.01
        j : 0.01 .. 0.01
        k : 0.01
    Block 1 cell size :
        i : 0.00751757 .. 0.00141348 0.00831109 .. 0.00156268 0.00751757 .. 0.00141348 0.00831109 .. 0.00156268 
        j : 0.01 .. 0.01 0.0111116 .. 0.0111116 0.01 .. 0.01 0.0111116 .. 0.0111116 
        k : 0.01
    Block 2 cell size :
        i : 0.00751757 .. 0.00141348 0.00831109 .. 0.00156268 0.00751757 .. 0.00141348 0.00831109 .. 0.00156268 
        j : 0.01 .. 0.01 0.0111116 .. 0.0111116 0.01 .. 0.01 0.0111116 .. 0.0111116 
        k : 0.01
    Block 3 cell size :
        i : 0.00751757 .. 0.00141348 0.00831109 .. 0.00156268 0.00751757 .. 0.00141348 0.00831109 .. 0.00156268 
        j : 0.01 .. 0.01 0.0111116 .. 0.0111116 0.01 .. 0.01 0.0111116 .. 0.0111116 
        k : 0.01
    Block 4 cell size :
        i : 0.00751757 .. 0.00141348 0.00831109 .. 0.00156268 0.00751757 .. 0.00141348 0.00831109 .. 0.00156268 
        j : 0.01 .. 0.01 0.0111116 .. 0.0111116 0.01 .. 0.01 0.0111116 .. 0.0111116 
        k : 0.01

Writing polyMesh
----------------
Mesh Information
----------------
  boundingBox: (-0.12 -0.12 -0.3) (0.12 0.12 0.5)
  nPoints: 37665
  nCells: 35840
  nFaces: 109248
  nInternalFaces: 105792
----------------
Patches
----------------
  patch 0 (start: 105792 size: 2560) name: outerWalls
  patch 1 (start: 108352 size: 448) name: outlet
  patch 2 (start: 108800 size: 448) name: inlet

End

