/*---------------------------------------------------------------------------*\
  =========                 |
  \\      /  F ield         | OpenFOAM: The Open Source CFD Toolbox
   \\    /   O peration     | Website:  https://openfoam.org
    \\  /    A nd           | Version:  8
     \\/     M anipulation  |
\*---------------------------------------------------------------------------*/
Build  : 8-9b73cf21a682
Exec   : decomposePar
Date   : Nov 16 2020
Time   : 11:59:27
Host   : "bc8e23000998"
PID    : 14367
I/O    : uncollated
Case   : /home/student/OpenFOAM/student-8/run/Shared_CTTP/testAme/3D
nProcs : 1
sigFpe : Enabling floating point exception trapping (FOAM_SIGFPE).
fileModificationChecking : Monitoring run-time modified files using timeStampMaster (fileModificationSkew 10)
allowSystemOperations : Allowing user-supplied system call operations

// * * * * * * * * * * * * * * * * * * * * * * * * * * * * * * * * * * * * * //
Create time



Decomposing mesh region0

Create mesh

Calculating distribution of cells
Selecting decompositionMethod simple

Finished decomposition in 0.02 s

Calculating original mesh data

Distributing cells to processors

Distributing faces to processors

Distributing points to processors

Constructing processor meshes

Processor 0
    Number of cells = 8960
    Number of faces shared with processor 1 = 1280
    Number of faces shared with processor 2 = 1280
    Number of processor patches = 2
    Number of processor faces = 2560
    Number of boundary faces = 864

Processor 1
    Number of cells = 8960
    Number of faces shared with processor 0 = 1280
    Number of faces shared with processor 3 = 1280
    Number of processor patches = 2
    Number of processor faces = 2560
    Number of boundary faces = 864

Processor 2
    Number of cells = 8960
    Number of faces shared with processor 0 = 1280
    Number of faces shared with processor 3 = 1280
    Number of processor patches = 2
    Number of processor faces = 2560
    Number of boundary faces = 864

Processor 3
    Number of cells = 8960
    Number of faces shared with processor 1 = 1280
    Number of faces shared with processor 2 = 1280
    Number of processor patches = 2
    Number of processor faces = 2560
    Number of boundary faces = 864

Number of processor faces = 5120
Max number of cells = 8960 (0% above average 8960)
Max number of processor patches = 2 (0% above average 2)
Max number of faces between processors = 2560 (0% above average 2560)

Time = 0

Processor 0: field transfer
Processor 1: field transfer
Processor 2: field transfer
Processor 3: field transfer

End

