/*---------------------------------------------------------------------------*\
  =========                 |
  \\      /  F ield         | OpenFOAM: The Open Source CFD Toolbox
   \\    /   O peration     | Website:  https://openfoam.org
    \\  /    A nd           | Version:  8
     \\/     M anipulation  |
\*---------------------------------------------------------------------------*/
Build  : 8-9b73cf21a682
Exec   : rotateMesh (0 0 1) (0 1 0) -noZero
Date   : Nov 16 2020
Time   : 11:59:27
Host   : "bc8e23000998"
PID    : 14361
I/O    : uncollated
Case   : /home/student/OpenFOAM/student-8/run/Shared_CTTP/testAme/3D
nProcs : 1
sigFpe : Enabling floating point exception trapping (FOAM_SIGFPE).
fileModificationChecking : Monitoring run-time modified files using timeStampMaster (fileModificationSkew 10)
allowSystemOperations : Allowing user-supplied system call operations

// * * * * * * * * * * * * * * * * * * * * * * * * * * * * * * * * * * * * * //
Create time

Writing points into directory "/home/student/OpenFOAM/student-8/run/Shared_CTTP/testAme/3D/constant/polyMesh"

--> FOAM Warning : 
    From function static Foam::instantList Foam::timeSelector::select0(Foam::Time&, const Foam::argList&)
    in file db/Time/timeSelector.C at line 269
    No time specified or available, selecting 'constant'
Create mesh for time = constant

Time = constant
End

