Invalid MIT-MAGIC-COOKIE-1 key/*---------------------------------------------------------------------------*\
  =========                 |
  \\      /  F ield         | OpenFOAM: The Open Source CFD Toolbox
   \\    /   O peration     | Website:  https://openfoam.org
    \\  /    A nd           | Version:  8
     \\/     M anipulation  |
\*---------------------------------------------------------------------------*/
Build  : 8
Exec   : checkMesh -parallel -latestTime
Date   : Dec 28 2020
Time   : 21:32:01
Host   : "edo20-HP-Pavilion-Notebook"
PID    : 324624
I/O    : uncollated
Case   : /home/edo20/Piscaglia/Shared_docker_folder/Shared_CTTP/testEdo/3D/combustor3D-wf
nProcs : 4
Slaves : 
3
(
"edo20-HP-Pavilion-Notebook.324625"
"edo20-HP-Pavilion-Notebook.324626"
"edo20-HP-Pavilion-Notebook.324627"
)

Pstream initialized with:
    floatTransfer      : 0
    nProcsSimpleSum    : 0
    commsType          : nonBlocking
    polling iterations : 0
sigFpe : Enabling floating point exception trapping (FOAM_SIGFPE).
fileModificationChecking : Monitoring run-time modified files using timeStampMaster (fileModificationSkew 10)
allowSystemOperations : Allowing user-supplied system call operations

// * * * * * * * * * * * * * * * * * * * * * * * * * * * * * * * * * * * * * //
Create time

Create polyMesh for time = 0

Time = 0

Mesh stats
    points:           99220
    faces:            271440
    internal faces:   246960
    cells:            86400
    faces per cell:   6
    boundary patches: 5
    point zones:      0
    face zones:       1
    cell zones:       0

Overall number of cells of each type:
    hexahedra:     86400
    prisms:        0
    wedges:        0
    pyramids:      0
    tet wedges:    0
    tetrahedra:    0
    polyhedra:     0

Checking topology...
    Boundary definition OK.
    Cell to face addressing OK.
    Point usage OK.
    Upper triangular ordering OK.
    Face vertices OK.
    Number of regions: 1 (OK).

Checking basic patch addressing...
    Patch               Faces    Points   
    outlet              720      820      
    inlet               720      820      
    region0_to_wallFilmRegion_wallFilmFaces5760     6292     

Checking geometry...
    Overall domain bounding box (-0.12 -0.3 -0.12) (0.12 0.5 0.12)
    Mesh has 3 geometric (non-empty/wedge) directions (1 1 1)
    Mesh has 3 solution (non-empty) directions (1 1 1)
    Boundary openness (-7.96015e-16 2.36594e-17 -8.16913e-16) OK.
    Max cell openness = 3.60258e-16 OK.
    Max aspect ratio = 5.62123 OK.
    Minimum face area = 9.42319e-06. Maximum face area = 0.000121519.  Face area magnitudes OK.
    Min volume = 1.51572e-07. Max volume = 8.10126e-07.  Total volume = 0.0360879.  Cell volumes OK.
    Mesh non-orthogonality Max: 31.131 average: 5.92024
    Non-orthogonality check OK.
    Face pyramids OK.
    Max skewness = 0.578679 OK.
    Coupled point location match (average 0) OK.

Mesh OK.

End

Finalising parallel run
