Invalid MIT-MAGIC-COOKIE-1 key/*---------------------------------------------------------------------------*\
  =========                 |
  \\      /  F ield         | OpenFOAM: The Open Source CFD Toolbox
   \\    /   O peration     | Website:  https://openfoam.org
    \\  /    A nd           | Version:  8
     \\/     M anipulation  |
\*---------------------------------------------------------------------------*/
Build  : 8
Exec   : checkMesh -parallel -latestTime
Date   : Dec 28 2020
Time   : 21:19:52
Host   : "edo20-HP-Pavilion-Notebook"
PID    : 322955
I/O    : uncollated
Case   : /home/edo20/Piscaglia/Shared_docker_folder/Shared_CTTP/testEdo/3D/combustor3D-wf
nProcs : 4
Slaves : 
3
(
"edo20-HP-Pavilion-Notebook.322956"
"edo20-HP-Pavilion-Notebook.322957"
"edo20-HP-Pavilion-Notebook.322958"
)

Pstream initialized with:
    floatTransfer      : 0
    nProcsSimpleSum    : 0
    commsType          : nonBlocking
    polling iterations : 0
sigFpe : Enabling floating point exception trapping (FOAM_SIGFPE).
fileModificationChecking : Monitoring run-time modified files using timeStampMaster (fileModificationSkew 10)
allowSystemOperations : Allowing user-supplied system call operations

// * * * * * * * * * * * * * * * * * * * * * * * * * * * * * * * * * * * * * //
Create time

Create polyMesh for time = 3e-05

Time = 3e-05

Mesh stats
    points:           1255998
    faces:            3484720
    internal faces:   3344306
    cells:            1117301
    faces per cell:   6.11207
    boundary patches: 11
    point zones:      0
    face zones:       0
    cell zones:       0

Overall number of cells of each type:
    hexahedra:     1038826
    prisms:        19508
    wedges:        0
    pyramids:      0
    tet wedges:    8
    tetrahedra:    0
    polyhedra:     58959
    Breakdown of polyhedra by number of faces:
        faces   number of cells
            4   1178
            5   1752
            6   14661
            7   3528
            8   2510
            9   23982
           10   316
           11   184
           12   10487
           15   360
           18   1

Checking topology...
    Boundary definition OK.
    Cell to face addressing OK.
    Point usage OK.
    Upper triangular ordering OK.
    Face vertices OK.
    Number of regions: 1 (OK).

Checking basic patch addressing...
                   Patch    Faces   Points
              outerWalls     5760     6292
                  outlet     1392     1552
                   inlet      720      820
           splitterFront    16100    18660
           splitterRight     1802     2003
            splitterRear    17614    19942
            splitterLeft     1802     2003
          splitterBottom     5162     6150
             splitterTop     5162     6150

Checking geometry...
    Overall domain bounding box (-0.12 -0.3 -0.12) (0.12 0.5 0.12)
    Mesh has 3 geometric (non-empty/wedge) directions (1 1 1)
    Mesh has 3 solution (non-empty) directions (1 1 1)
    Boundary openness (-1.67454e-15 -6.56149e-17 2.22291e-16) OK.
    Max cell openness = 7.39745e-16 OK.
    Max aspect ratio = 21.7394 OK.
    Minimum face area = 2.89468e-09. Maximum face area = 0.000121596.  Face area magnitudes OK.
    Min volume = 4.98494e-13. Max volume = 8.12937e-07.  Total volume = 0.0360639.  Cell volumes OK.
    Mesh non-orthogonality Max: 64.9909 average: 10.3324
    Non-orthogonality check OK.
    Face pyramids OK.
    Max skewness = 3.66724 OK.
    Coupled point location match (average 0) OK.

Mesh OK.

End

Finalising parallel run
