/*---------------------------------------------------------------------------*\
  =========                 |
  \\      /  F ield         | OpenFOAM: The Open Source CFD Toolbox
   \\    /   O peration     | Website:  https://openfoam.org
    \\  /    A nd           | Version:  8
     \\/     M anipulation  |
\*---------------------------------------------------------------------------*/
Build  : 8
Exec   : decomposePar -region wallFilmRegion -latestTime
Date   : Dec 28 2020
Time   : 21:32:01
Host   : "edo20-HP-Pavilion-Notebook"
PID    : 324615
I/O    : uncollated
Case   : /home/edo20/Piscaglia/Shared_docker_folder/Shared_CTTP/testEdo/3D/combustor3D-wf
nProcs : 1
sigFpe : Enabling floating point exception trapping (FOAM_SIGFPE).
fileModificationChecking : Monitoring run-time modified files using timeStampMaster (fileModificationSkew 10)
allowSystemOperations : Allowing user-supplied system call operations

// * * * * * * * * * * * * * * * * * * * * * * * * * * * * * * * * * * * * * //
Create time



Decomposing mesh wallFilmRegion

Create mesh

Calculating distribution of cells
Selecting decompositionMethod scotch

Finished decomposition in 0.01 s

Calculating original mesh data

Distributing cells to processors

Distributing faces to processors

Distributing points to processors

Constructing processor meshes

Processor 0
    Number of cells = 1440
    Number of faces shared with processor 1 = 48
    Number of processor patches = 1
    Number of processor faces = 48
    Number of boundary faces = 2928

Processor 1
    Number of cells = 1440
    Number of faces shared with processor 0 = 48
    Number of faces shared with processor 3 = 48
    Number of processor patches = 2
    Number of processor faces = 96
    Number of boundary faces = 2880

Processor 2
    Number of cells = 1440
    Number of faces shared with processor 3 = 48
    Number of processor patches = 1
    Number of processor faces = 48
    Number of boundary faces = 2928

Processor 3
    Number of cells = 1440
    Number of faces shared with processor 1 = 48
    Number of faces shared with processor 2 = 48
    Number of processor patches = 2
    Number of processor faces = 96
    Number of boundary faces = 2880

Number of processor faces = 144
Max number of cells = 1440 (0% above average 1440)
Max number of processor patches = 2 (33.3333% above average 1.5)
Max number of faces between processors = 96 (33.3333% above average 72)

Time = 0

Processor 0: field transfer
Processor 1: field transfer
Processor 2: field transfer
Processor 3: field transfer

End

