/*---------------------------------------------------------------------------*\
  =========                 |
  \\      /  F ield         | OpenFOAM: The Open Source CFD Toolbox
   \\    /   O peration     | Website:  https://openfoam.org
    \\  /    A nd           | Version:  8
     \\/     M anipulation  |
\*---------------------------------------------------------------------------*/
Build  : 8
Exec   : extrudeToRegionMesh -overwrite
Date   : Dec 29 2020
Time   : 10:40:50
Host   : "edo20-HP-Pavilion-Notebook"
PID    : 12675
I/O    : uncollated
Case   : /home/edo20/Piscaglia/Shared_docker_folder/Shared_CTTP/testEdo/3D/combustor3D-wf
nProcs : 1
sigFpe : Enabling floating point exception trapping (FOAM_SIGFPE).
fileModificationChecking : Monitoring run-time modified files using timeStampMaster (fileModificationSkew 10)
allowSystemOperations : Allowing user-supplied system call operations

// * * * * * * * * * * * * * * * * * * * * * * * * * * * * * * * * * * * * * //
Create time

Create mesh for time = 0

Selecting extrudeModel linearNormal
Extruding zones 1(wallFilmFaces) on mesh region0 into shell mesh wallFilmRegion
Testing:"/home/edo20/Piscaglia/Shared_docker_folder/Shared_CTTP/testEdo/3D/combustor3D-wf/system/wallFilmRegion/fvSchemes"
Writing meshes to 0

Zone wallFilmFaces has boundary faces
extrudePatch : faces:53402 points:56900 edges:110300

Adding coupling patches:

patchID	patch	type
-------	-----	----
9	wallFilmFaces_top	patch
10	region0_to_wallFilmRegion_wallFilmFaces	mappedWall
Added 2 inter-region patches.

Adding coupling patches:

patchID	patch	type
-------	-----	----
9	wallFilmFaces_top	patch
10	region0_to_wallFilmRegion_wallFilmFaces	mappedWall
Added 2 inter-region patches.

Adding patches for sides on zones:

patchID	patch
-------	-----
Added 0 zone-side patches.

Adding processor or cyclic patches:

patchID	patch
-------	-----
Added 0 coupled patches.

Deleting patch 0 name:outerWalls
Deleting patch 3 name:splitterFront
Deleting patch 4 name:splitterRight
Deleting patch 5 name:splitterRear
Deleting patch 6 name:splitterLeft
Deleting patch 7 name:splitterBottom
Deleting patch 8 name:splitterTop
Writing mesh wallFilmRegion to "0"

Deleting patch 0 name:outerWalls
Deleting patch 3 name:splitterFront
Deleting patch 4 name:splitterRight
Deleting patch 5 name:splitterRear
Deleting patch 6 name:splitterLeft
Deleting patch 7 name:splitterBottom
Deleting patch 8 name:splitterTop
Deleting patch 9 name:wallFilmFaces_top
Writing mesh region0 to "0"

End

