/*---------------------------------------------------------------------------*\
  =========                 |
  \\      /  F ield         | OpenFOAM: The Open Source CFD Toolbox
   \\    /   O peration     | Website:  https://openfoam.org
    \\  /    A nd           | Version:  8
     \\/     M anipulation  |
\*---------------------------------------------------------------------------*/
Build  : 8
Exec   : sprayFilmFoam
Date   : Dec 29 2020
Time   : 11:20:29
Host   : "edo20-HP-Pavilion-Notebook"
PID    : 15493
/*---------------------------------------------------------------------------*\
  =========                 |
  \\      /  F ield         | OpenFOAM: The Open Source CFD Toolbox
   \\    /   O peration     | Website:  https://openfoam.org
    \\  /    A nd           | Version:  8
     \\/     M anipulation  |
\*---------------------------------------------------------------------------*/
Build  : 8
Exec   : sprayFilmFoam
Date   : Dec 29 2020
Time   : 11:20:29
Host   : "edo20-HP-Pavilion-Notebook"
PID    : 15494
/*---------------------------------------------------------------------------*\
  =========                 |
  \\      /  F ield         | OpenFOAM: The Open Source CFD Toolbox
   \\    /   O peration     | Website:  https://openfoam.org
    \\  /    A nd           | Version:  8
     \\/     M anipulation  |
\*---------------------------------------------------------------------------*/
Build  : 8
Exec   : sprayFilmFoam
Date   : Dec 29 2020
Time   : 11:20:29
Host   : "edo20-HP-Pavilion-Notebook"
PID    : 15495
/*---------------------------------------------------------------------------*\
  =========                 |
  \\      /  F ield         | OpenFOAM: The Open Source CFD Toolbox
   \\    /   O peration     | Website:  https://openfoam.org
    \\  /    A nd           | Version:  8
     \\/     M anipulation  |
\*---------------------------------------------------------------------------*/
Build  : 8
Exec   : sprayFilmFoam
Date   : Dec 29 2020
Time   : 11:20:29
Host   : "edo20-HP-Pavilion-Notebook"
PID    : 15496
I/O    : uncollated
I/O    : uncollated
I/O    : uncollated
I/O    : uncollated
Case   : /home/edo20/Piscaglia/Shared_docker_folder/Shared_CTTP/testEdo/3D/combustor3D-wf
nProcs : 1
Case   : /home/edo20/Piscaglia/Shared_docker_folder/Shared_CTTP/testEdo/3D/combustor3D-wf
nProcs : 1
Case   : /home/edo20/Piscaglia/Shared_docker_folder/Shared_CTTP/testEdo/3D/combustor3D-wf
nProcs : 1
sigFpe : Enabling floating point exception trapping (FOAM_SIGFPE).
Case   : /home/edo20/Piscaglia/Shared_docker_folder/Shared_CTTP/testEdo/3D/combustor3D-wf
nProcs : 1
fileModificationChecking : Monitoring run-time modified files using timeStampMaster (fileModificationSkew 10)
allowSystemOperations : Allowing user-supplied system call operations

// * * * * * * * * * * * * * * * * * * * * * * * * * * * * * * * * * * * * * //
sigFpe : Enabling floating point exception trapping (FOAM_SIGFPE).
fileModificationChecking : Monitoring run-time modified files using timeStampMaster (fileModificationSkew 10)
allowSystemOperations : Allowing user-supplied system call operations

// * * * * * * * * * * * * * * * * * * * * * * * * * * * * * * * * * * * * * //
Create time

sigFpe : Enabling floating point exception trapping (FOAM_SIGFPE).
fileModificationChecking : Monitoring run-time modified files using timeStampMaster (fileModificationSkew 10)
allowSystemOperations : Allowing user-supplied system call operations

// * * * * * * * * * * * * * * * * * * * * * * * * * * * * * * * * * * * * * //
sigFpe : Enabling floating point exception trapping (FOAM_SIGFPE).
fileModificationChecking : Monitoring run-time modified files using timeStampMaster (fileModificationSkew 10)
allowSystemOperations : Allowing user-supplied system call operations

// * * * * * * * * * * * * * * * * * * * * * * * * * * * * * * * * * * * * * //
Create time

Create time

Create time

Create mesh for time = 0

Create mesh for time = 0

Create mesh for time = 0

Create mesh for time = 0


PIMPLE: No convergence criteria found


PIMPLE: Corrector convergence criteria found
        p: tolerance 0.0001, relTol 0
        U: tolerance 1e-05, relTol 0
        Calculations will do 30 corrections if the convergence criteria are not met


PIMPLE: Operating solver in transient mode with 30 outer correctors



Reading g

PIMPLE: No convergence criteria found


PIMPLE: Corrector convergence criteria found
        p: tolerance 0.0001, relTol 0
        U: tolerance 1e-05, relTol 0
        Calculations will do 30 corrections if the convergence criteria are not met


PIMPLE: Operating solver in transient mode with 30 outer correctors


Reading thermophysical properties


Reading g
Reading thermophysical properties

Selecting thermodynamics package 
{
    type            hePsiThermo;
    mixture         multiComponentMixture;
    transport       sutherland;
    thermo          janaf;
    energy          sensibleEnthalpy;
    equationOfState perfectGas;
    specie          specie;
}

Selecting thermodynamics package 
{
    type            hePsiThermo;
    mixture         multiComponentMixture;
    transport       sutherland;
    thermo          janaf;
    energy          sensibleEnthalpy;
    equationOfState perfectGas;
    specie          specie;
}


PIMPLE: No convergence criteria found


PIMPLE: Corrector convergence criteria found

PIMPLE: No convergence criteria found


PIMPLE: Corrector convergence criteria found
        p: tolerance 0.0001, relTol 0
        U: tolerance 1e-05, relTol 0
        Calculations will do 30 corrections if the convergence criteria are not met


PIMPLE: Operating solver in transient mode with 30 outer correctors
        p: tolerance 0.0001, relTol 0
        U: tolerance 1e-05, relTol 0
        Calculations will do 30 corrections if the convergence criteria are not met


PIMPLE: Operating solver in transient mode with 30 outer correctors



Reading g



Reading g
Reading thermophysical properties

Reading thermophysical properties

Selecting thermodynamics package 
{
    type            hePsiThermo;
    mixture         multiComponentMixture;
    transport       sutherland;
    thermo          janaf;
    energy          sensibleEnthalpy;
    equationOfState perfectGas;
    specie          specie;
}

Selecting thermodynamics package 
{
    type            hePsiThermo;
    mixture         multiComponentMixture;
    transport       sutherland;
    thermo          janaf;
    energy          sensibleEnthalpy;
    equationOfState perfectGas;
    specie          specie;
}

Creating component thermo properties:
    multi-component carrier - 5 species
    liquids - 1 components
    solids - 0 components

Reading field U

Creating component thermo properties:
    multi-component carrier - 5 species
    liquids - 1 components
    solids - 0 components

Reading field U

Reading/calculating face flux field phi

Reading/calculating face flux field phi

Creating component thermo properties:
    multi-component carrier - 5 species
    liquids - 1 components
    solids - 0 components
Creating component thermo properties:
    multi-component carrier - 5 species
    liquids - 1 components
    solids - 0 components

Reading field U


Reading field U

Reading/calculating face flux field phi

Reading/calculating face flux field phi

Creating turbulence model

Selecting turbulence model type RAS
Selecting RAS turbulence model kEpsilon
Creating turbulence model

Selecting turbulence model type RAS
Selecting RAS turbulence model kEpsilon
Creating turbulence model

Selecting turbulence model type RAS
Selecting RAS turbulence model kEpsilon
Creating turbulence model

Selecting turbulence model type RAS
Selecting RAS turbulence model kEpsilon
RAS
{
    RASModel        kEpsilon;
    turbulence      on;
    printCoeffs     on;
    Cmu             0.09;
    C1              1.44;
    C2              1.92;
    C3              0;
    sigmak          1;
    sigmaEps        1.3;
}

Creating thermophysical transport model

Selecting thermophysical transport type RAS
Selecting default RAS thermophysical transport model eddyDiffusivity
Creating combustion model

Selecting combustion model PaSR
Selecting chemistry solver 
{
    solver          EulerImplicit;
    method          standard;
}

RAS
{
    RASModel        kEpsilon;
    turbulence      on;
    printCoeffs     on;
    Cmu             0.09;
    C1              1.44;
    C2              1.92;
    C3              0;
    sigmak          1;
    sigmaEps        1.3;
}

Creating thermophysical transport model

Selecting thermophysical transport type RAS
Selecting default RAS thermophysical transport model eddyDiffusivity
Creating combustion model

Selecting combustion model PaSR
Selecting chemistry solver 
{
    solver          EulerImplicit;
    method          standard;
}

StandardChemistryModel: Number of species = 5 and reactions = 1
    using integrated reaction rate
RAS
{
    RASModel        kEpsilon;
    turbulence      on;
    printCoeffs     on;
    Cmu             0.09;
    C1              1.44;
    C2              1.92;
    C3              0;
    sigmak          1;
    sigmaEps        1.3;
}

Creating thermophysical transport model

Selecting thermophysical transport type RAS
Selecting default RAS thermophysical transport model eddyDiffusivity
Creating field dpdt

Creating combustion model

Selecting combustion model PaSR
Selecting chemistry solver 
{
    solver          EulerImplicit;
    method          standard;
}

Creating field kinetic energy K

StandardChemistryModel: Number of species = 5 and reactions = 1
    using integrated reaction rate
No MRF models present


Constructing reacting cloud
Creating field dpdt

RAS
{
    RASModel        kEpsilon;
    turbulence      on;
    printCoeffs     on;
    Cmu             0.09;
    C1              1.44;
    C2              1.92;
    C3              0;
    sigmak          1;
    sigmaEps        1.3;
}

Creating thermophysical transport model

Selecting thermophysical transport type RAS
Selecting default RAS thermophysical transport model eddyDiffusivity
Creating field kinetic energy K

Creating combustion model

Selecting combustion model PaSR
Selecting chemistry solver 
{
    solver          EulerImplicit;
    method          standard;
}

No MRF models present


Constructing reacting cloud
StandardChemistryModel: Number of species = 5 and reactions = 1
    using integrated reaction rate
Creating field dpdt

Creating field kinetic energy K

StandardChemistryModel: Number of species = 5 and reactions = 1
    using integrated reaction rate
No MRF models present


Constructing reacting cloud
Creating field dpdt

Creating field kinetic energy K

No MRF models present


Constructing reacting cloud
Constructing particle forces
    Selecting particle force sphereDrag
Constructing cloud functions
    Selecting cloud function facePostProcessing of type facePostProcessing
    Selecting cloud function particleTrack1 of type particleTracks
    Selecting cloud function voidFraction1 of type voidFraction
    Selecting cloud function patchPostProcessing of type patchPostProcessing
Constructing particle injection models
Creating injector: model1
Selecting injection model coneInjection
    Constructing 3-D injection
Selecting distribution model RosinRammler
    Distribution min: 1e-06 max: 0.00015 mean: 0.00015
Constructing particle forces
    Selecting particle force sphereDrag
Constructing cloud functions
    Selecting cloud function facePostProcessing of type facePostProcessing
    Selecting cloud function particleTrack1 of type particleTracks
    Selecting cloud function voidFraction1 of type voidFraction
    Selecting cloud function patchPostProcessing of type patchPostProcessing
Constructing particle injection models
Creating injector: model1
Selecting injection model coneInjection
    Constructing 3-D injection
Selecting distribution model RosinRammler
    Distribution min: 1e-06 max: 0.00015 mean: 0.00015
Selecting dispersion model none
Selecting patch interaction model standardWallInteraction
Selecting stochastic collision model none
Selecting surface film model thermoSurfaceFilm
    Applying absorb interaction model
Selecting U integration scheme Euler
Selecting dispersion model none
Selecting patch interaction model standardWallInteraction
Selecting stochastic collision model none
Selecting surface film model thermoSurfaceFilm
    Applying absorb interaction model
Selecting U integration scheme Euler
Selecting heat transfer model RanzMarshall
Selecting T integration scheme analytical
Constructing particle forces
    Selecting particle force sphereDrag
Constructing cloud functions
    Selecting cloud function facePostProcessing of type facePostProcessing
    Selecting cloud function particleTrack1 of type particleTracks
    Selecting cloud function voidFraction1 of type voidFraction
    Selecting cloud function patchPostProcessing of type patchPostProcessing
Constructing particle injection models
Creating injector: model1
Selecting injection model coneInjection
    Constructing 3-D injection
Selecting distribution model RosinRammler
    Distribution min: 1e-06 max: 0.00015 mean: 0.00015
Selecting composition model singlePhaseMixture
Selecting phase change model liquidEvaporationBoil
Participating liquid species:
    C7H16
Selecting heat transfer model RanzMarshall
Selecting T integration scheme analytical
Selecting composition model singlePhaseMixture
Selecting phase change model liquidEvaporationBoil
Participating liquid species:
    C7H16
Selecting dispersion model none
Selecting patch interaction model standardWallInteraction
Selecting stochastic collision model none
Selecting surface film model thermoSurfaceFilm
    Applying absorb interaction model
Selecting U integration scheme Euler
Selecting heat transfer model RanzMarshall
Selecting T integration scheme analytical
Selecting composition model singlePhaseMixture
Selecting phase change model liquidEvaporationBoil
Participating liquid species:
    C7H16
Constructing particle forces
    Selecting particle force sphereDrag
Constructing cloud functions
    Selecting cloud function facePostProcessing of type facePostProcessing
    Selecting cloud function particleTrack1 of type particleTracks
    Selecting cloud function voidFraction1 of type voidFraction
    Selecting cloud function patchPostProcessing of type patchPostProcessing
Constructing particle injection models
Creating injector: model1
Selecting injection model coneInjection
    Constructing 3-D injection
Selecting AtomizationModel none
Selecting BreakupModel ReitzKHRT
Selecting distribution model RosinRammler
    Distribution min: 1e-06 max: 0.00015 mean: 0.00015
Average parcel mass: 5e-10
Selecting AtomizationModel none
Selecting BreakupModel ReitzKHRT
Radiation model not active: radiationProperties not found
Selecting radiationModel none
Creating finite volume options from "system/fvOptions"

Selecting finite volume options model type limitTemperature
    Source: limitT
    - selecting all cells
Average parcel mass: 5e-10
Selecting dispersion model none
Selecting patch interaction model standardWallInteraction
Selecting stochastic collision model none
Selecting surface film model thermoSurfaceFilm
    Applying absorb interaction model
Selecting U integration scheme Euler
Radiation model not active: radiationProperties not found
Selecting radiationModel none
Creating finite volume options from "system/fvOptions"

Selecting finite volume options model type limitTemperature
    Source: limitT
    - selecting all cells
    - selected 1117301 cell(s) with volume 0.0360639
Selecting finite volume options model type limitVelocity
    Source: limitU
    - selecting all cells
    - selected 1117301 cell(s) with volume 0.0360639
Selecting finite volume options model type limitVelocity
    Source: limitU
    - selecting all cells
Selecting AtomizationModel none
Selecting BreakupModel ReitzKHRT
    - selected 1117301 cell(s) with volume 0.0360639

Constructing surface film model
Selecting surfaceFilmModel thermoSingleLayer
    Selecting region model functions
    none
Selecting heat transfer model RanzMarshall
Selecting T integration scheme analytical
Average parcel mass: 5e-10
Selecting composition model singlePhaseMixture
Selecting phase change model liquidEvaporationBoil
Participating liquid species:
    C7H16
    - selected 1117301 cell(s) with volume 0.0360639

Constructing surface film model
Selecting surfaceFilmModel thermoSingleLayer
    Selecting region model functions
    none
Radiation model not active: radiationProperties not found
Selecting radiationModel none
Creating finite volume options from "system/fvOptions"

Selecting finite volume options model type limitTemperature
    Source: limitT
    - selecting all cells
    - selected 1117301 cell(s) with volume 0.0360639
Selecting finite volume options model type limitVelocity
    Source: limitU
    - selecting all cells
    - selected 1117301 cell(s) with volume 0.0360639

Constructing surface film model
Selecting surfaceFilmModel thermoSingleLayer
    Selecting region model functions
    none
Selecting AtomizationModel none
Selecting BreakupModel ReitzKHRT
Average parcel mass: 5e-10
Radiation model not active: radiationProperties not found
Selecting radiationModel none
Creating finite volume options from "system/fvOptions"

Selecting finite volume options model type limitTemperature
    Source: limitT
    - selecting all cells
    - selected 1117301 cell(s) with volume 0.0360639
Selecting finite volume options model type limitVelocity
    Source: limitU
    - selecting all cells

PIMPLE: No convergence criteria found


PIMPLE: Operating solver in transient mode with 1 outer corrector
PIMPLE: Operating solver in PISO mode


    - selected 1117301 cell(s) with volume 0.0360639

Constructing surface film model
Selecting surfaceFilmModel thermoSingleLayer
    Selecting region model functions
    none

PIMPLE: No convergence criteria found


PIMPLE: Operating solver in transient mode with 1 outer corrector
PIMPLE: Operating solver in PISO mode



PIMPLE: No convergence criteria found


PIMPLE: Operating solver in transient mode with 1 outer corrector
PIMPLE: Operating solver in PISO mode


    Selecting filmThermoModel liquid
    Selecting film injection models
        curvatureSeparation
    Selecting filmThermoModel liquid
    Selecting film injection models
        curvatureSeparation
    Selecting filmThermoModel liquid
    Selecting film injection models
        curvatureSeparation

PIMPLE: No convergence criteria found


PIMPLE: Operating solver in transient mode with 1 outer corrector
PIMPLE: Operating solver in PISO mode


        drippingInjection
Selecting distribution model RosinRammler
    Distribution min: 1e-06 max: 0.00015 mean: 0.00015
    Selecting film transfer models
        none
    Selecting filmMomentumTransportModel laminar
    Selecting film force models
        thermocapillary
        distributionContactAngle
Selecting distribution model normal
    Distribution min: 50 max: 100 mean: 75
        drippingInjection
Selecting distribution model RosinRammler
    Distribution min: 1e-06 max: 0.00015 mean: 0.00015
    Selecting film transfer models
        none
    Selecting filmMomentumTransportModel laminar
    Selecting film force models
        thermocapillary
        distributionContactAngle
Selecting distribution model normal
    Distribution min: 50 max: 100 mean: 75
    Selecting filmViscosityModel liquid
    Selecting heatTransferModel constant
    Selecting heatTransferModel constant
    Selecting phaseChangeModel standardPhaseChange
    Selecting radiationModel none
    Selecting filmViscosityModel liquid
    Selecting heatTransferModel constant
    Selecting heatTransferModel constant
    Selecting phaseChangeModel standardPhaseChange
    Selecting radiationModel none
        drippingInjection
Selecting distribution model RosinRammler
    Distribution min: 1e-06 max: 0.00015 mean: 0.00015
    Selecting film transfer models
        none
    Selecting filmMomentumTransportModel laminar
    Selecting film force models
        thermocapillary
        distributionContactAngle
Selecting distribution model normal
    Distribution min: 50 max: 100 mean: 75
    Selecting filmViscosityModel liquid
    Selecting heatTransferModel constant
    Selecting heatTransferModel constant
    Selecting phaseChangeModel standardPhaseChange
    Selecting radiationModel none
    Selecting filmThermoModel liquid
    Selecting film injection models
        curvatureSeparation
        drippingInjection
Selecting distribution model RosinRammler
    Distribution min: 1e-06 max: 0.00015 mean: 0.00015
    Selecting film transfer models
        none
    Selecting filmMomentumTransportModel laminar
    Selecting film force models
        thermocapillary
        distributionContactAngle
Selecting distribution model normal
    Distribution min: 50 max: 100 mean: 75
    Selecting filmViscosityModel liquid
    Selecting heatTransferModel constant
    Selecting heatTransferModel constant
    Selecting phaseChangeModel standardPhaseChange
    Selecting radiationModel none
Courant Number mean: 3.47453e-05 max: 0.00417132
Courant Number mean: 3.47453e-05 max: 0.00417132

Starting time loop


Starting time loop

Courant Number mean: 3.47453e-05 max: 0.00417132

Starting time loop

Courant Number mean: 3.47453e-05 max: 0.00417132
deltaT = 1.19904e-05
Time = 1.19904e-05

Courant Number mean: 3.47453e-05 max: 0.00417132
deltaT = 1.19904e-05
Time = 1.19904e-05

Courant Number mean: 3.47453e-05 max: 0.00417132
deltaT = 1.19904e-05
Time = 1.19904e-05

Courant Number mean: 3.47453e-05 max: 0.00417132

Starting time loop

Courant Number mean: 3.47453e-05 max: 0.00417132
deltaT = 1.19904e-05
Time = 1.19904e-05


Solving 3-D cloud sprayCloud

Solving 3-D cloud sprayCloud

Solving 3-D cloud sprayCloud

Solving 3-D cloud sprayCloud

Cloud: sprayCloud injector: model1
    Added 23 new parcels

Cloud: sprayCloud
    Current number of parcels       = 23
    Current mass in system          = 5.42911e-12
    Linear momentum                 = (9.81968e-17 1.51463e-13 -3.31502e-15)
   |Linear momentum|                = 1.515e-13
    Linear kinetic energy           = 2.37763e-15
    model1:
        number of parcels added     = 23
        mass introduced             = 5.42998e-12
    Parcels absorbed into film      = 0
    New film detached parcels       = 0
    New film splash parcels         = 0
    Parcel fate (number, mass)
      - escape                      = 0, 0
      - stick                       = 0, 0
    Temperature min/max             = 320.023, 320.205
    Mass transfer phase change      = 8.66819e-16
    D10, D32, Dmax (mu)             = 177.484, 203.497, 278.708
    Liquid penetration 95% mass (m) = 5.1713e-07


Evolving thermoSingleLayer for region wallFilmRegion

Cloud: sprayCloud injector: model1
    Added 23 new parcels

diagonal:  Solving for alpha, Initial residual = 0, Final residual = 0, No Iterations 0
Cloud: sprayCloud
    Current number of parcels       = 23
    Current mass in system          = 5.42911e-12
    Linear momentum                 = (9.81968e-17 1.51463e-13 -3.31502e-15)
   |Linear momentum|                = 1.515e-13
    Linear kinetic energy           = 2.37763e-15
    model1:
        number of parcels added     = 23
        mass introduced             = 5.42998e-12
    Parcels absorbed into film      = 0
    New film detached parcels       = 0
    New film splash parcels         = 0
    Parcel fate (number, mass)
      - escape                      = 0, 0
      - stick                       = 0, 0
    Temperature min/max             = 320.023, 320.205
    Mass transfer phase change      = 8.66819e-16
    D10, D32, Dmax (mu)             = 177.484, 203.497, 278.708
    Liquid penetration 95% mass (m) = 5.1713e-07


Evolving thermoSingleLayer for region wallFilmRegion
diagonal:  Solving for alpha, Initial residual = 0, Final residual = 0, No Iterations 0
diagonal:  Solving for alpha, Initial residual = 0, Final residual = 0, No Iterations 0
diagonal:  Solving for alpha, Initial residual = 0, Final residual = 0, No Iterations 0
DILUPBiCGStab:  Solving for Ux, Initial residual = 0.999987, Final residual = 3.40377e-17, No Iterations 1
DILUPBiCGStab:  Solving for Uy, Initial residual = 0.999977, Final residual = 3.36016e-17, No Iterations 1
DILUPBiCGStab:  Solving for Uz, Initial residual = 0.999987, Final residual = 3.50515e-17, No Iterations 1

Cloud: sprayCloud injector: model1
    Added 23 new parcels

DILUPBiCGStab:  Solving for h, Initial residual = 6.0326e-05, Final residual = 5.68104e-22, No Iterations 1
Cloud: sprayCloud
    Current number of parcels       = 23
    Current mass in system          = 5.42911e-12
    Linear momentum                 = (9.81968e-17 1.51463e-13 -3.31502e-15)
   |Linear momentum|                = 1.515e-13
    Linear kinetic energy           = 2.37763e-15
    model1:
        number of parcels added     = 23
        mass introduced             = 5.42998e-12
    Parcels absorbed into film      = 0
    New film detached parcels       = 0
    New film splash parcels         = 0
    Parcel fate (number, mass)
      - escape                      = 0, 0
      - stick                       = 0, 0
    Temperature min/max             = 320.023, 320.205
    Mass transfer phase change      = 8.66819e-16
    D10, D32, Dmax (mu)             = 177.484, 203.497, 278.708
    Liquid penetration 95% mass (m) = 5.1713e-07

DILUPBiCGStab:  Solving for Ux, Initial residual = 0.999987, Final residual = 3.40377e-17, No Iterations 1

Evolving thermoSingleLayer for region wallFilmRegion
DILUPBiCGStab:  Solving for Uy, Initial residual = 0.999977, Final residual = 3.36016e-17, No Iterations 1
DILUPBiCGStab:  Solving for Uz, Initial residual = 0.999987, Final residual = 3.50515e-17, No Iterations 1
DILUPBiCGStab:  Solving for alpha, Initial residual = 0, Final residual = 0, No Iterations 0
DILUPBiCGStab:  Solving for h, Initial residual = 6.0326e-05, Final residual = 5.68104e-22, No Iterations 1
diagonal:  Solving for alpha, Initial residual = 0, Final residual = 0, No Iterations 0
diagonal:  Solving for alpha, Initial residual = 0, Final residual = 0, No Iterations 0
DILUPBiCGStab:  Solving for alpha, Initial residual = 0, Final residual = 0, No Iterations 0

Surface film: thermoSingleLayer
    added mass         = 0
    current mass       = 0
    min/max(mag(U))    = 0, 1.1392e-19
    min/max(delta)     = 0, 0
    coverage           = 0
    injected mass      = 0
      - patch: region0_to_wallFilmRegion_wallFilmFaces: 0
    transferred mass      = 0
      - patch: region0_to_wallFilmRegion_wallFilmFaces: 0
    min/mean/max(T)    = 300, 300, 300
    mass phase change  = 0
    vapourisation rate = 0


Surface film: thermoSingleLayer
    added mass         = 0
    current mass       = 0
    min/max(mag(U))    = 0, 1.1392e-19
    min/max(delta)     = 0, 0
    coverage           = 0
    injected mass      = 0
      - patch: region0_to_wallFilmRegion_wallFilmFaces: 0
    transferred mass      = 0
      - patch: region0_to_wallFilmRegion_wallFilmFaces: 0
    min/mean/max(T)    = 300, 300, 300
    mass phase change  = 0
    vapourisation rate = 0

diagonal:  Solving for rho, Initial residual = 0, Final residual = 0, No Iterations 0
PIMPLE: Iteration 1
DILUPBiCGStab:  Solving for Ux, Initial residual = 0.999987, Final residual = 3.40377e-17, No Iterations 1
DILUPBiCGStab:  Solving for Uy, Initial residual = 0.999977, Final residual = 3.36016e-17, No Iterations 1
diagonal:  Solving for rho, Initial residual = 0, Final residual = 0, No Iterations 0
DILUPBiCGStab:  Solving for Uz, Initial residual = 0.999987, Final residual = 3.50515e-17, No Iterations 1
PIMPLE: Iteration 1
DILUPBiCGStab:  Solving for h, Initial residual = 6.0326e-05, Final residual = 5.68104e-22, No Iterations 1
DILUPBiCGStab:  Solving for alpha, Initial residual = 0, Final residual = 0, No Iterations 0

Surface film: thermoSingleLayer
    added mass         = 0
    current mass       = 0
    min/max(mag(U))    = 0, 1.1392e-19
    min/max(delta)     = 0, 0
    coverage           = 0
    injected mass      = 0
      - patch: region0_to_wallFilmRegion_wallFilmFaces: 0
    transferred mass      = 0
      - patch: region0_to_wallFilmRegion_wallFilmFaces: 0
    min/mean/max(T)    = 300, 300, 300
    mass phase change  = 0
    vapourisation rate = 0

diagonal:  Solving for rho, Initial residual = 0, Final residual = 0, No Iterations 0
PIMPLE: Iteration 1
smoothSolver:  Solving for Ux, Initial residual = 1, Final residual = 6.30731e-07, No Iterations 3
smoothSolver:  Solving for Ux, Initial residual = 1, Final residual = 6.30731e-07, No Iterations 3
smoothSolver:  Solving for Uy, Initial residual = 1, Final residual = 2.00208e-07, No Iterations 2
smoothSolver:  Solving for Uy, Initial residual = 1, Final residual = 2.00208e-07, No Iterations 2
smoothSolver:  Solving for Ux, Initial residual = 1, Final residual = 6.30731e-07, No Iterations 3
smoothSolver:  Solving for Uz, Initial residual = 1, Final residual = 5.28807e-07, No Iterations 3
smoothSolver:  Solving for Uz, Initial residual = 1, Final residual = 5.28807e-07, No Iterations 3
smoothSolver:  Solving for Uy, Initial residual = 1, Final residual = 2.00208e-07, No Iterations 2
smoothSolver:  Solving for Uz, Initial residual = 1, Final residual = 5.28807e-07, No Iterations 3

Cloud: sprayCloud injector: model1
    Added 23 new parcels

Cloud: sprayCloud
    Current number of parcels       = 23
    Current mass in system          = 5.42911e-12
    Linear momentum                 = (9.81968e-17 1.51463e-13 -3.31502e-15)
   |Linear momentum|                = 1.515e-13
    Linear kinetic energy           = 2.37763e-15
    model1:
        number of parcels added     = 23
        mass introduced             = 5.42998e-12
    Parcels absorbed into film      = 0
    New film detached parcels       = 0
    New film splash parcels         = 0
    Parcel fate (number, mass)
      - escape                      = 0, 0
      - stick                       = 0, 0
    Temperature min/max             = 320.023, 320.205
    Mass transfer phase change      = 8.66819e-16
    D10, D32, Dmax (mu)             = 177.484, 203.497, 278.708
    Liquid penetration 95% mass (m) = 5.1713e-07


Evolving thermoSingleLayer for region wallFilmRegion
diagonal:  Solving for alpha, Initial residual = 0, Final residual = 0, No Iterations 0
diagonal:  Solving for alpha, Initial residual = 0, Final residual = 0, No Iterations 0
DILUPBiCGStab:  Solving for Ux, Initial residual = 0.999987, Final residual = 3.40377e-17, No Iterations 1
DILUPBiCGStab:  Solving for Uy, Initial residual = 0.999977, Final residual = 3.36016e-17, No Iterations 1
DILUPBiCGStab:  Solving for Uz, Initial residual = 0.999987, Final residual = 3.50515e-17, No Iterations 1
DILUPBiCGStab:  Solving for h, Initial residual = 6.0326e-05, Final residual = 5.68104e-22, No Iterations 1
DILUPBiCGStab:  Solving for alpha, Initial residual = 0, Final residual = 0, No Iterations 0

Surface film: thermoSingleLayer
    added mass         = 0
    current mass       = 0
    min/max(mag(U))    = 0, 1.1392e-19
    min/max(delta)     = 0, 0
    coverage           = 0
    injected mass      = 0
      - patch: region0_to_wallFilmRegion_wallFilmFaces: 0
    transferred mass      = 0
      - patch: region0_to_wallFilmRegion_wallFilmFaces: 0
    min/mean/max(T)    = 300, 300, 300
    mass phase change  = 0
    vapourisation rate = 0

diagonal:  Solving for rho, Initial residual = 0, Final residual = 0, No Iterations 0
PIMPLE: Iteration 1
DILUPBiCGStab:  Solving for C7H16, Initial residual = 1, Final residual = 1.09385e-09, No Iterations 1
DILUPBiCGStab:  Solving for C7H16, Initial residual = 1, Final residual = 1.09385e-09, No Iterations 1
DILUPBiCGStab:  Solving for C7H16, Initial residual = 1, Final residual = 1.09385e-09, No Iterations 1
DILUPBiCGStab:  Solving for O2, Initial residual = 0.00204808, Final residual = 4.35473e-12, No Iterations 1
DILUPBiCGStab:  Solving for O2, Initial residual = 0.00204808, Final residual = 4.35473e-12, No Iterations 1
DILUPBiCGStab:  Solving for O2, Initial residual = 0.00204808, Final residual = 4.35473e-12, No Iterations 1
DILUPBiCGStab:  Solving for CO2, Initial residual = 0, Final residual = 0, No Iterations 0
DILUPBiCGStab:  Solving for CO2, Initial residual = 0, Final residual = 0, No Iterations 0
smoothSolver:  Solving for Ux, Initial residual = 1, Final residual = 6.30731e-07, No Iterations 3
DILUPBiCGStab:  Solving for CO2, Initial residual = 0, Final residual = 0, No Iterations 0
smoothSolver:  Solving for Uy, Initial residual = 1, Final residual = 2.00208e-07, No Iterations 2
smoothSolver:  Solving for Uz, Initial residual = 1, Final residual = 5.28807e-07, No Iterations 3
DILUPBiCGStab:  Solving for H2O, Initial residual = 0, Final residual = 0, No Iterations 0
DILUPBiCGStab:  Solving for H2O, Initial residual = 0, Final residual = 0, No Iterations 0
DILUPBiCGStab:  Solving for H2O, Initial residual = 0, Final residual = 0, No Iterations 0
smoothSolver:  Solving for h, Initial residual = 1, Final residual = 1.19273e-09, No Iterations 1
smoothSolver:  Solving for h, Initial residual = 1, Final residual = 1.19273e-09, No Iterations 1
smoothSolver:  Solving for h, Initial residual = 1, Final residual = 1.19273e-09, No Iterations 1
DILUPBiCGStab:  Solving for C7H16, Initial residual = 1, Final residual = 1.09385e-09, No Iterations 1
T gas min/max   500, 900
DILUPBiCGStab:  Solving for O2, Initial residual = 0.00204808, Final residual = 4.35473e-12, No Iterations 1
T gas min/max   500, 900
T gas min/max   500, 900
DILUPBiCGStab:  Solving for CO2, Initial residual = 0, Final residual = 0, No Iterations 0
DILUPBiCGStab:  Solving for H2O, Initial residual = 0, Final residual = 0, No Iterations 0
GAMG:  Solving for p, Initial residual = 1, Final residual = 2.45941e-07, No Iterations 4
diagonal:  Solving for rho, Initial residual = 0, Final residual = 0, No Iterations 0
time step continuity errors : sum local = 2.89655e-11, global = 5.96981e-14, cumulative = 5.96981e-14
rho max/min : 0.705281 0.393433
GAMG:  Solving for p, Initial residual = 1, Final residual = 2.45941e-07, No Iterations 4
GAMG:  Solving for p, Initial residual = 1, Final residual = 2.45941e-07, No Iterations 4
diagonal:  Solving for rho, Initial residual = 0, Final residual = 0, No Iterations 0
diagonal:  Solving for rho, Initial residual = 0, Final residual = 0, No Iterations 0
time step continuity errors : sum local = 2.89655e-11, global = 5.96981e-14, cumulative = 5.96981e-14
time step continuity errors : sum local = 2.89655e-11, global = 5.96981e-14, cumulative = 5.96981e-14
rho max/min : 0.705281 0.393433
rho max/min : 0.705281 0.393433
smoothSolver:  Solving for h, Initial residual = 1, Final residual = 1.19273e-09, No Iterations 1
smoothSolver:  Solving for h, Initial residual = 0.330069, Final residual = 7.58463e-09, No Iterations 1
T gas min/max   500, 900
smoothSolver:  Solving for h, Initial residual = 0.330069, Final residual = 7.58463e-09, No Iterations 1
smoothSolver:  Solving for h, Initial residual = 0.330069, Final residual = 7.58463e-09, No Iterations 1
T gas min/max   500, 900
T gas min/max   500, 900
T gas min/max   500, 900
GAMG:  Solving for p, Initial residual = 0.357508, Final residual = 8.24223e-08, No Iterations 4
diagonal:  Solving for rho, Initial residual = 0, Final residual = 0, No Iterations 0
time step continuity errors : sum local = 1.94042e-11, global = 2.11986e-13, cumulative = 2.71684e-13
rho max/min : 0.704116 0.394248
PIMPLE: Iteration 2
GAMG:  Solving for p, Initial residual = 1, Final residual = 2.45941e-07, No Iterations 4
diagonal:  Solving for rho, Initial residual = 0, Final residual = 0, No Iterations 0
time step continuity errors : sum local = 2.89655e-11, global = 5.96981e-14, cumulative = 5.96981e-14
rho max/min : 0.705281 0.393433
GAMG:  Solving for p, Initial residual = 0.357508, Final residual = 8.24223e-08, No Iterations 4
GAMG:  Solving for p, Initial residual = 0.357508, Final residual = 8.24223e-08, No Iterations 4
diagonal:  Solving for rho, Initial residual = 0, Final residual = 0, No Iterations 0
diagonal:  Solving for rho, Initial residual = 0, Final residual = 0, No Iterations 0
time step continuity errors : sum local = 1.94042e-11, global = 2.11986e-13, cumulative = 2.71684e-13
time step continuity errors : sum local = 1.94042e-11, global = 2.11986e-13, cumulative = 2.71684e-13
rho max/min : 0.704116 0.394248
rho max/min : 0.704116 0.394248
PIMPLE: Iteration 2
PIMPLE: Iteration 2
smoothSolver:  Solving for Ux, Initial residual = 0.222455, Final residual = 9.40917e-07, No Iterations 2
smoothSolver:  Solving for h, Initial residual = 0.330069, Final residual = 7.58463e-09, No Iterations 1
smoothSolver:  Solving for Uy, Initial residual = 0.19228, Final residual = 3.1919e-09, No Iterations 2
smoothSolver:  Solving for Uz, Initial residual = 0.221064, Final residual = 2.25712e-07, No Iterations 2
smoothSolver:  Solving for Ux, Initial residual = 0.222455, Final residual = 9.40917e-07, No Iterations 2
smoothSolver:  Solving for Ux, Initial residual = 0.222455, Final residual = 9.40917e-07, No Iterations 2
T gas min/max   500, 900
smoothSolver:  Solving for Uy, Initial residual = 0.19228, Final residual = 3.1919e-09, No Iterations 2
smoothSolver:  Solving for Uy, Initial residual = 0.19228, Final residual = 3.1919e-09, No Iterations 2
smoothSolver:  Solving for Uz, Initial residual = 0.221064, Final residual = 2.25712e-07, No Iterations 2
smoothSolver:  Solving for Uz, Initial residual = 0.221064, Final residual = 2.25712e-07, No Iterations 2
DILUPBiCGStab:  Solving for C7H16, Initial residual = 0.106089, Final residual = 9.89281e-09, No Iterations 1
GAMG:  Solving for p, Initial residual = 0.357508, Final residual = 8.24223e-08, No Iterations 4
diagonal:  Solving for rho, Initial residual = 0, Final residual = 0, No Iterations 0
time step continuity errors : sum local = 1.94042e-11, global = 2.11986e-13, cumulative = 2.71684e-13
rho max/min : 0.704116 0.394248
PIMPLE: Iteration 2
DILUPBiCGStab:  Solving for O2, Initial residual = 1, Final residual = 1.09237e-07, No Iterations 1
DILUPBiCGStab:  Solving for C7H16, Initial residual = 0.106089, Final residual = 9.89281e-09, No Iterations 1
DILUPBiCGStab:  Solving for C7H16, Initial residual = 0.106089, Final residual = 9.89281e-09, No Iterations 1
DILUPBiCGStab:  Solving for CO2, Initial residual = 1, Final residual = 9.40064e-08, No Iterations 1
smoothSolver:  Solving for Ux, Initial residual = 0.222455, Final residual = 9.40917e-07, No Iterations 2
smoothSolver:  Solving for Uy, Initial residual = 0.19228, Final residual = 3.1919e-09, No Iterations 2
DILUPBiCGStab:  Solving for O2, Initial residual = 1, Final residual = 1.09237e-07, No Iterations 1
DILUPBiCGStab:  Solving for O2, Initial residual = 1, Final residual = 1.09237e-07, No Iterations 1
smoothSolver:  Solving for Uz, Initial residual = 0.221064, Final residual = 2.25712e-07, No Iterations 2
DILUPBiCGStab:  Solving for H2O, Initial residual = 1, Final residual = 9.40064e-08, No Iterations 1
DILUPBiCGStab:  Solving for CO2, Initial residual = 1, Final residual = 9.40064e-08, No Iterations 1
DILUPBiCGStab:  Solving for CO2, Initial residual = 1, Final residual = 9.40064e-08, No Iterations 1
DILUPBiCGStab:  Solving for H2O, Initial residual = 1, Final residual = 9.40064e-08, No Iterations 1
DILUPBiCGStab:  Solving for H2O, Initial residual = 1, Final residual = 9.40064e-08, No Iterations 1
smoothSolver:  Solving for h, Initial residual = 0.139283, Final residual = 4.01549e-09, No Iterations 1
DILUPBiCGStab:  Solving for C7H16, Initial residual = 0.106089, Final residual = 9.89281e-09, No Iterations 1
DILUPBiCGStab:  Solving for O2, Initial residual = 1, Final residual = 1.09237e-07, No Iterations 1
T gas min/max   500, 900
smoothSolver:  Solving for h, Initial residual = 0.139283, Final residual = 4.01549e-09, No Iterations 1
smoothSolver:  Solving for h, Initial residual = 0.139283, Final residual = 4.01549e-09, No Iterations 1
DILUPBiCGStab:  Solving for CO2, Initial residual = 1, Final residual = 9.40064e-08, No Iterations 1
GAMG:  Solving for p, Initial residual = 0.300321, Final residual = 6.60253e-08, No Iterations 4
DILUPBiCGStab:  Solving for H2O, Initial residual = 1, Final residual = 9.40064e-08, No Iterations 1
diagonal:  Solving for rho, Initial residual = 0, Final residual = 0, No Iterations 0
time step continuity errors : sum local = 1.873e-11, global = 4.34054e-13, cumulative = 7.05738e-13
rho max/min : 0.705508 0.396091
T gas min/max   500, 900
T gas min/max   500, 900
smoothSolver:  Solving for h, Initial residual = 0.139283, Final residual = 4.01549e-09, No Iterations 1
GAMG:  Solving for p, Initial residual = 0.300321, Final residual = 6.60253e-08, No Iterations 4
smoothSolver:  Solving for h, Initial residual = 0.0634656, Final residual = 2.2438e-09, No Iterations 1
diagonal:  Solving for rho, Initial residual = 0, Final residual = 0, No Iterations 0
time step continuity errors : sum local = 1.873e-11, global = 4.34054e-13, cumulative = 7.05738e-13
GAMG:  Solving for p, Initial residual = 0.300321, Final residual = 6.60253e-08, No Iterations 4
rho max/min : 0.705508 0.396091
diagonal:  Solving for rho, Initial residual = 0, Final residual = 0, No Iterations 0
time step continuity errors : sum local = 1.873e-11, global = 4.34054e-13, cumulative = 7.05738e-13
rho max/min : 0.705508 0.396091
T gas min/max   500, 900
T gas min/max   500, 900
smoothSolver:  Solving for h, Initial residual = 0.0634656, Final residual = 2.2438e-09, No Iterations 1
smoothSolver:  Solving for h, Initial residual = 0.0634656, Final residual = 2.2438e-09, No Iterations 1
GAMG:  Solving for p, Initial residual = 0.135699, Final residual = 8.05908e-07, No Iterations 3
diagonal:  Solving for rho, Initial residual = 0, Final residual = 0, No Iterations 0
GAMG:  Solving for p, Initial residual = 0.300321, Final residual = 6.60253e-08, No Iterations 4
time step continuity errors : sum local = 2.86828e-10, global = 7.17094e-12, cumulative = 7.87668e-12
rho max/min : 0.705066 0.396373
diagonal:  Solving for rho, Initial residual = 0, Final residual = 0, No Iterations 0
PIMPLE: Iteration 3
time step continuity errors : sum local = 1.873e-11, global = 4.34054e-13, cumulative = 7.05738e-13
rho max/min : 0.705508 0.396091
T gas min/max   500, 900
T gas min/max   500, 900
GAMG:  Solving for p, Initial residual = 0.135699, Final residual = 8.05908e-07, No Iterations 3
smoothSolver:  Solving for h, Initial residual = 0.0634656, Final residual = 2.2438e-09, No Iterations 1
diagonal:  Solving for rho, Initial residual = 0, Final residual = 0, No Iterations 0
time step continuity errors : sum local = 2.86828e-10, global = 7.17094e-12, cumulative = 7.87668e-12
rho max/min : 0.705066 0.396373
GAMG:  Solving for p, Initial residual = 0.135699, Final residual = 8.05908e-07, No Iterations 3
smoothSolver:  Solving for Ux, Initial residual = 0.128501, Final residual = 8.81203e-07, No Iterations 2
PIMPLE: Iteration 3
diagonal:  Solving for rho, Initial residual = 0, Final residual = 0, No Iterations 0
time step continuity errors : sum local = 2.86828e-10, global = 7.17094e-12, cumulative = 7.87668e-12
rho max/min : 0.705066 0.396373
PIMPLE: Iteration 3
smoothSolver:  Solving for Uy, Initial residual = 0.10836, Final residual = 1.19618e-09, No Iterations 2
smoothSolver:  Solving for Uz, Initial residual = 0.127669, Final residual = 2.2027e-07, No Iterations 2
T gas min/max   500, 900
smoothSolver:  Solving for Ux, Initial residual = 0.128501, Final residual = 8.81203e-07, No Iterations 2
smoothSolver:  Solving for Ux, Initial residual = 0.128501, Final residual = 8.81203e-07, No Iterations 2
smoothSolver:  Solving for Uy, Initial residual = 0.10836, Final residual = 1.19618e-09, No Iterations 2
smoothSolver:  Solving for Uy, Initial residual = 0.10836, Final residual = 1.19618e-09, No Iterations 2
smoothSolver:  Solving for Uz, Initial residual = 0.127669, Final residual = 2.2027e-07, No Iterations 2
GAMG:  Solving for p, Initial residual = 0.135699, Final residual = 8.05908e-07, No Iterations 3
diagonal:  Solving for rho, Initial residual = 0, Final residual = 0, No Iterations 0
time step continuity errors : sum local = 2.86828e-10, global = 7.17094e-12, cumulative = 7.87668e-12
rho max/min : 0.705066 0.396373
smoothSolver:  Solving for Uz, Initial residual = 0.127669, Final residual = 2.2027e-07, No Iterations 2
PIMPLE: Iteration 3
DILUPBiCGStab:  Solving for C7H16, Initial residual = 0.0117858, Final residual = 1.39212e-09, No Iterations 1
DILUPBiCGStab:  Solving for O2, Initial residual = 0.216166, Final residual = 3.31816e-08, No Iterations 1
smoothSolver:  Solving for Ux, Initial residual = 0.128501, Final residual = 8.81203e-07, No Iterations 2
DILUPBiCGStab:  Solving for CO2, Initial residual = 0.0533644, Final residual = 6.28429e-09, No Iterations 1
smoothSolver:  Solving for Uy, Initial residual = 0.10836, Final residual = 1.19618e-09, No Iterations 2
DILUPBiCGStab:  Solving for C7H16, Initial residual = 0.0117858, Final residual = 1.39212e-09, No Iterations 1
smoothSolver:  Solving for Uz, Initial residual = 0.127669, Final residual = 2.2027e-07, No Iterations 2
DILUPBiCGStab:  Solving for C7H16, Initial residual = 0.0117858, Final residual = 1.39212e-09, No Iterations 1
DILUPBiCGStab:  Solving for H2O, Initial residual = 0.0533644, Final residual = 6.28429e-09, No Iterations 1
DILUPBiCGStab:  Solving for O2, Initial residual = 0.216166, Final residual = 3.31816e-08, No Iterations 1
DILUPBiCGStab:  Solving for O2, Initial residual = 0.216166, Final residual = 3.31816e-08, No Iterations 1
DILUPBiCGStab:  Solving for CO2, Initial residual = 0.0533644, Final residual = 6.28429e-09, No Iterations 1
DILUPBiCGStab:  Solving for CO2, Initial residual = 0.0533644, Final residual = 6.28429e-09, No Iterations 1
smoothSolver:  Solving for h, Initial residual = 0.0387293, Final residual = 1.42498e-09, No Iterations 1
DILUPBiCGStab:  Solving for C7H16, Initial residual = 0.0117858, Final residual = 1.39212e-09, No Iterations 1
DILUPBiCGStab:  Solving for H2O, Initial residual = 0.0533644, Final residual = 6.28429e-09, No Iterations 1
DILUPBiCGStab:  Solving for H2O, Initial residual = 0.0533644, Final residual = 6.28429e-09, No Iterations 1
DILUPBiCGStab:  Solving for O2, Initial residual = 0.216166, Final residual = 3.31816e-08, No Iterations 1
T gas min/max   500, 900
DILUPBiCGStab:  Solving for CO2, Initial residual = 0.0533644, Final residual = 6.28429e-09, No Iterations 1
smoothSolver:  Solving for h, Initial residual = 0.0387293, Final residual = 1.42498e-09, No Iterations 1
smoothSolver:  Solving for h, Initial residual = 0.0387293, Final residual = 1.42498e-09, No Iterations 1
GAMG:  Solving for p, Initial residual = 0.132366, Final residual = 6.62259e-07, No Iterations 3
diagonal:  Solving for rho, Initial residual = 0, Final residual = 0, No Iterations 0
time step continuity errors : sum local = 2.48512e-10, global = 6.0854e-12, cumulative = 1.39621e-11
rho max/min : 0.706095 0.39732
DILUPBiCGStab:  Solving for H2O, Initial residual = 0.0533644, Final residual = 6.28429e-09, No Iterations 1
T gas min/max   500, 900
T gas min/max   500, 900
smoothSolver:  Solving for h, Initial residual = 0.0188068, Final residual = 7.10147e-10, No Iterations 1
smoothSolver:  Solving for h, Initial residual = 0.0387293, Final residual = 1.42498e-09, No Iterations 1
GAMG:  Solving for p, Initial residual = 0.132366, Final residual = 6.62259e-07, No Iterations 3
diagonal:  Solving for rho, Initial residual = 0, Final residual = 0, No Iterations 0
time step continuity errors : sum local = 2.48512e-10, global = 6.0854e-12, cumulative = 1.39621e-11
rho max/min : 0.706095 0.39732
GAMG:  Solving for p, Initial residual = 0.132366, Final residual = 6.62259e-07, No Iterations 3
diagonal:  Solving for rho, Initial residual = 0, Final residual = 0, No Iterations 0
time step continuity errors : sum local = 2.48512e-10, global = 6.0854e-12, cumulative = 1.39621e-11
rho max/min : 0.706095 0.39732
T gas min/max   500, 900
T gas min/max   500, 900
smoothSolver:  Solving for h, Initial residual = 0.0188068, Final residual = 7.10147e-10, No Iterations 1
smoothSolver:  Solving for h, Initial residual = 0.0188068, Final residual = 7.10147e-10, No Iterations 1
GAMG:  Solving for p, Initial residual = 0.0602245, Final residual = 2.83324e-07, No Iterations 3
GAMG:  Solving for p, Initial residual = 0.132366, Final residual = 6.62259e-07, No Iterations 3
diagonal:  Solving for rho, Initial residual = 0, Final residual = 0, No Iterations 0
time step continuity errors : sum local = 1.17338e-10, global = 3.0869e-12, cumulative = 1.7049e-11
rho max/min : 0.705978 0.397402
diagonal:  Solving for rho, Initial residual = 0, Final residual = 0, No Iterations 0
PIMPLE: Iteration 4
time step continuity errors : sum local = 2.48512e-10, global = 6.0854e-12, cumulative = 1.39621e-11
rho max/min : 0.706095 0.39732
T gas min/max   500, 900
T gas min/max   500, 900
smoothSolver:  Solving for h, Initial residual = 0.0188068, Final residual = 7.10147e-10, No Iterations 1
smoothSolver:  Solving for Ux, Initial residual = 0.0684475, Final residual = 7.5596e-07, No Iterations 2
smoothSolver:  Solving for Uy, Initial residual = 0.061899, Final residual = 9.95362e-07, No Iterations 1
GAMG:  Solving for p, Initial residual = 0.0602245, Final residual = 2.83324e-07, No Iterations 3
GAMG:  Solving for p, Initial residual = 0.0602245, Final residual = 2.83324e-07, No Iterations 3
smoothSolver:  Solving for Uz, Initial residual = 0.0685465, Final residual = 2.08192e-07, No Iterations 2
diagonal:  Solving for rho, Initial residual = 0, Final residual = 0, No Iterations 0
time step continuity errors : sum local = 1.17338e-10, global = 3.0869e-12, cumulative = 1.7049e-11
rho max/min : 0.705978 0.397402
diagonal:  Solving for rho, Initial residual = 0, Final residual = 0, No Iterations 0
time step continuity errors : sum local = 1.17338e-10, global = 3.0869e-12, cumulative = 1.7049e-11
PIMPLE: Iteration 4
rho max/min : 0.705978 0.397402
PIMPLE: Iteration 4
T gas min/max   500, 900
smoothSolver:  Solving for Ux, Initial residual = 0.0684475, Final residual = 7.5596e-07, No Iterations 2
GAMG:  Solving for p, Initial residual = 0.0602245, Final residual = 2.83324e-07, No Iterations 3
smoothSolver:  Solving for Ux, Initial residual = 0.0684475, Final residual = 7.5596e-07, No Iterations 2
DILUPBiCGStab:  Solving for C7H16, Initial residual = 0.00429865, Final residual = 5.86296e-10, No Iterations 1
smoothSolver:  Solving for Uy, Initial residual = 0.061899, Final residual = 9.95362e-07, No Iterations 1
diagonal:  Solving for rho, Initial residual = 0, Final residual = 0, No Iterations 0
time step continuity errors : sum local = 1.17338e-10, global = 3.0869e-12, cumulative = 1.7049e-11
rho max/min : 0.705978 0.397402
smoothSolver:  Solving for Uy, Initial residual = 0.061899, Final residual = 9.95362e-07, No Iterations 1
PIMPLE: Iteration 4
smoothSolver:  Solving for Uz, Initial residual = 0.0685465, Final residual = 2.08192e-07, No Iterations 2
smoothSolver:  Solving for Uz, Initial residual = 0.0685465, Final residual = 2.08192e-07, No Iterations 2
DILUPBiCGStab:  Solving for O2, Initial residual = 0.271682, Final residual = 4.90298e-08, No Iterations 1
DILUPBiCGStab:  Solving for CO2, Initial residual = 0.0120828, Final residual = 1.65217e-09, No Iterations 1
smoothSolver:  Solving for Ux, Initial residual = 0.0684475, Final residual = 7.5596e-07, No Iterations 2
smoothSolver:  Solving for Uy, Initial residual = 0.061899, Final residual = 9.95362e-07, No Iterations 1
smoothSolver:  Solving for Uz, Initial residual = 0.0685465, Final residual = 2.08192e-07, No Iterations 2
DILUPBiCGStab:  Solving for H2O, Initial residual = 0.0120828, Final residual = 1.65217e-09, No Iterations 1
DILUPBiCGStab:  Solving for C7H16, Initial residual = 0.00429865, Final residual = 5.86296e-10, No Iterations 1
DILUPBiCGStab:  Solving for C7H16, Initial residual = 0.00429865, Final residual = 5.86296e-10, No Iterations 1
DILUPBiCGStab:  Solving for O2, Initial residual = 0.271682, Final residual = 4.90298e-08, No Iterations 1
DILUPBiCGStab:  Solving for O2, Initial residual = 0.271682, Final residual = 4.90298e-08, No Iterations 1
smoothSolver:  Solving for h, Initial residual = 0.0124919, Final residual = 4.73731e-10, No Iterations 1
DILUPBiCGStab:  Solving for CO2, Initial residual = 0.0120828, Final residual = 1.65217e-09, No Iterations 1
DILUPBiCGStab:  Solving for CO2, Initial residual = 0.0120828, Final residual = 1.65217e-09, No Iterations 1
DILUPBiCGStab:  Solving for C7H16, Initial residual = 0.00429865, Final residual = 5.86296e-10, No Iterations 1
T gas min/max   500, 900
DILUPBiCGStab:  Solving for H2O, Initial residual = 0.0120828, Final residual = 1.65217e-09, No Iterations 1
DILUPBiCGStab:  Solving for O2, Initial residual = 0.271682, Final residual = 4.90298e-08, No Iterations 1
DILUPBiCGStab:  Solving for H2O, Initial residual = 0.0120828, Final residual = 1.65217e-09, No Iterations 1
DILUPBiCGStab:  Solving for CO2, Initial residual = 0.0120828, Final residual = 1.65217e-09, No Iterations 1
GAMG:  Solving for p, Initial residual = 0.0608695, Final residual = 2.18273e-07, No Iterations 3
diagonal:  Solving for rho, Initial residual = 0, Final residual = 0, No Iterations 0
time step continuity errors : sum local = 9.19234e-11, global = 2.32211e-12, cumulative = 1.93711e-11
rho max/min : 0.706487 0.397806
smoothSolver:  Solving for h, Initial residual = 0.0124919, Final residual = 4.73731e-10, No Iterations 1
DILUPBiCGStab:  Solving for H2O, Initial residual = 0.0120828, Final residual = 1.65217e-09, No Iterations 1
smoothSolver:  Solving for h, Initial residual = 0.0124919, Final residual = 4.73731e-10, No Iterations 1
smoothSolver:  Solving for h, Initial residual = 0.00539969, Final residual = 1.58199e-10, No Iterations 1
T gas min/max   500, 900
T gas min/max   500, 900
smoothSolver:  Solving for h, Initial residual = 0.0124919, Final residual = 4.73731e-10, No Iterations 1
T gas min/max   500, 900
GAMG:  Solving for p, Initial residual = 0.0608695, Final residual = 2.18273e-07, No Iterations 3
diagonal:  Solving for rho, Initial residual = 0, Final residual = 0, No Iterations 0
time step continuity errors : sum local = 9.19234e-11, global = 2.32211e-12, cumulative = 1.93711e-11
rho max/min : 0.706487 0.397806
GAMG:  Solving for p, Initial residual = 0.0608695, Final residual = 2.18273e-07, No Iterations 3
diagonal:  Solving for rho, Initial residual = 0, Final residual = 0, No Iterations 0
T gas min/max   500, 900
time step continuity errors : sum local = 9.19234e-11, global = 2.32211e-12, cumulative = 1.93711e-11
rho max/min : 0.706487 0.397806
GAMG:  Solving for p, Initial residual = 0.0268627, Final residual = 8.76295e-08, No Iterations 3
diagonal:  Solving for rho, Initial residual = 0, Final residual = 0, No Iterations 0
time step continuity errors : sum local = 3.85678e-11, global = 9.73263e-13, cumulative = 2.03444e-11
rho max/min : 0.706474 0.39782
PIMPLE: Iteration 5
GAMG:  Solving for p, Initial residual = 0.0608695, Final residual = 2.18273e-07, No Iterations 3
diagonal:  Solving for rho, Initial residual = 0, Final residual = 0, No Iterations 0
time step continuity errors : sum local = 9.19234e-11, global = 2.32211e-12, cumulative = 1.93711e-11
rho max/min : 0.706487 0.397806
smoothSolver:  Solving for h, Initial residual = 0.00539969, Final residual = 1.58199e-10, No Iterations 1
smoothSolver:  Solving for h, Initial residual = 0.00539969, Final residual = 1.58199e-10, No Iterations 1
smoothSolver:  Solving for Ux, Initial residual = 0.0364016, Final residual = 6.33102e-07, No Iterations 2
smoothSolver:  Solving for Uy, Initial residual = 0.0344438, Final residual = 5.56014e-07, No Iterations 1
smoothSolver:  Solving for Uz, Initial residual = 0.03672, Final residual = 1.93925e-07, No Iterations 2
T gas min/max   500, 900
T gas min/max   500, 900
smoothSolver:  Solving for h, Initial residual = 0.00539969, Final residual = 1.58199e-10, No Iterations 1
GAMG:  Solving for p, Initial residual = 0.0268627, Final residual = 8.76295e-08, No Iterations 3
diagonal:  Solving for rho, Initial residual = 0, Final residual = 0, No Iterations 0
time step continuity errors : sum local = 3.85678e-11, global = 9.73263e-13, cumulative = 2.03444e-11
rho max/min : 0.706474 0.39782
GAMG:  Solving for p, Initial residual = 0.0268627, Final residual = 8.76295e-08, No Iterations 3
PIMPLE: Iteration 5
diagonal:  Solving for rho, Initial residual = 0, Final residual = 0, No Iterations 0
T gas min/max   500, 900
time step continuity errors : sum local = 3.85678e-11, global = 9.73263e-13, cumulative = 2.03444e-11
rho max/min : 0.706474 0.39782
PIMPLE: Iteration 5
DILUPBiCGStab:  Solving for C7H16, Initial residual = 0.000470238, Final residual = 7.13518e-11, No Iterations 1
GAMG:  Solving for p, Initial residual = 0.0268627, Final residual = 8.76295e-08, No Iterations 3
diagonal:  Solving for rho, Initial residual = 0, Final residual = 0, No Iterations 0
DILUPBiCGStab:  Solving for O2, Initial residual = 0.310033, Final residual = 5.70545e-08, No Iterations 1
time step continuity errors : sum local = 3.85678e-11, global = 9.73263e-13, cumulative = 2.03444e-11
rho max/min : 0.706474 0.39782
PIMPLE: Iteration 5
smoothSolver:  Solving for Ux, Initial residual = 0.0364016, Final residual = 6.33102e-07, No Iterations 2
smoothSolver:  Solving for Uy, Initial residual = 0.0344438, Final residual = 5.56014e-07, No Iterations 1
smoothSolver:  Solving for Ux, Initial residual = 0.0364016, Final residual = 6.33102e-07, No Iterations 2
smoothSolver:  Solving for Uy, Initial residual = 0.0344438, Final residual = 5.56014e-07, No Iterations 1
smoothSolver:  Solving for Uz, Initial residual = 0.03672, Final residual = 1.93925e-07, No Iterations 2
DILUPBiCGStab:  Solving for CO2, Initial residual = 0.00320957, Final residual = 4.34664e-10, No Iterations 1
smoothSolver:  Solving for Uz, Initial residual = 0.03672, Final residual = 1.93925e-07, No Iterations 2
DILUPBiCGStab:  Solving for H2O, Initial residual = 0.00320957, Final residual = 4.34664e-10, No Iterations 1
smoothSolver:  Solving for Ux, Initial residual = 0.0364016, Final residual = 6.33102e-07, No Iterations 2
smoothSolver:  Solving for Uy, Initial residual = 0.0344438, Final residual = 5.56014e-07, No Iterations 1
smoothSolver:  Solving for Uz, Initial residual = 0.03672, Final residual = 1.93925e-07, No Iterations 2
DILUPBiCGStab:  Solving for C7H16, Initial residual = 0.000470238, Final residual = 7.13518e-11, No Iterations 1
DILUPBiCGStab:  Solving for C7H16, Initial residual = 0.000470238, Final residual = 7.13518e-11, No Iterations 1
smoothSolver:  Solving for h, Initial residual = 0.00371251, Final residual = 1.11527e-10, No Iterations 1
DILUPBiCGStab:  Solving for O2, Initial residual = 0.310033, Final residual = 5.70545e-08, No Iterations 1
DILUPBiCGStab:  Solving for O2, Initial residual = 0.310033, Final residual = 5.70545e-08, No Iterations 1
DILUPBiCGStab:  Solving for C7H16, Initial residual = 0.000470238, Final residual = 7.13518e-11, No Iterations 1
DILUPBiCGStab:  Solving for CO2, Initial residual = 0.00320957, Final residual = 4.34664e-10, No Iterations 1
T gas min/max   500, 900
DILUPBiCGStab:  Solving for CO2, Initial residual = 0.00320957, Final residual = 4.34664e-10, No Iterations 1
DILUPBiCGStab:  Solving for O2, Initial residual = 0.310033, Final residual = 5.70545e-08, No Iterations 1
DILUPBiCGStab:  Solving for H2O, Initial residual = 0.00320957, Final residual = 4.34664e-10, No Iterations 1
DILUPBiCGStab:  Solving for H2O, Initial residual = 0.00320957, Final residual = 4.34664e-10, No Iterations 1
GAMG:  Solving for p, Initial residual = 0.0274556, Final residual = 6.52828e-08, No Iterations 3
diagonal:  Solving for rho, Initial residual = 0, Final residual = 0, No Iterations 0
DILUPBiCGStab:  Solving for CO2, Initial residual = 0.00320957, Final residual = 4.34664e-10, No Iterations 1
time step continuity errors : sum local = 2.88795e-11, global = 5.35247e-13, cumulative = 2.08796e-11
rho max/min : 0.706671 0.397958
DILUPBiCGStab:  Solving for H2O, Initial residual = 0.00320957, Final residual = 4.34664e-10, No Iterations 1
smoothSolver:  Solving for h, Initial residual = 0.00371251, Final residual = 1.11527e-10, No Iterations 1
smoothSolver:  Solving for h, Initial residual = 0.00371251, Final residual = 1.11527e-10, No Iterations 1
smoothSolver:  Solving for h, Initial residual = 0.0027392, Final residual = 5.45854e-11, No Iterations 1
T gas min/max   500, 900
smoothSolver:  Solving for h, Initial residual = 0.00371251, Final residual = 1.11527e-10, No Iterations 1
T gas min/max   500, 900
T gas min/max   500, 900
GAMG:  Solving for p, Initial residual = 0.0274556, Final residual = 6.52828e-08, No Iterations 3
T gas min/max   500, 900
diagonal:  Solving for rho, Initial residual = 0, Final residual = 0, No Iterations 0
time step continuity errors : sum local = 2.88795e-11, global = 5.35247e-13, cumulative = 2.08796e-11
rho max/min : 0.706671 0.397958
GAMG:  Solving for p, Initial residual = 0.0274556, Final residual = 6.52828e-08, No Iterations 3
GAMG:  Solving for p, Initial residual = 0.0115579, Final residual = 6.86307e-07, No Iterations 2
diagonal:  Solving for rho, Initial residual = 0, Final residual = 0, No Iterations 0
time step continuity errors : sum local = 2.88795e-11, global = 5.35247e-13, cumulative = 2.08796e-11
rho max/min : 0.706671 0.397958
diagonal:  Solving for rho, Initial residual = 0, Final residual = 0, No Iterations 0
time step continuity errors : sum local = 3.09476e-10, global = -2.58182e-11, cumulative = -4.93858e-12
rho max/min : 0.706683 0.397954
PIMPLE: Iteration 6
GAMG:  Solving for p, Initial residual = 0.0274556, Final residual = 6.52828e-08, No Iterations 3
diagonal:  Solving for rho, Initial residual = 0, Final residual = 0, No Iterations 0
time step continuity errors : sum local = 2.88795e-11, global = 5.35247e-13, cumulative = 2.08796e-11
rho max/min : 0.706671 0.397958
smoothSolver:  Solving for h, Initial residual = 0.0027392, Final residual = 5.45854e-11, No Iterations 1
smoothSolver:  Solving for h, Initial residual = 0.0027392, Final residual = 5.45854e-11, No Iterations 1
smoothSolver:  Solving for Ux, Initial residual = 0.0284687, Final residual = 5.40744e-07, No Iterations 2
smoothSolver:  Solving for Uy, Initial residual = 0.0183716, Final residual = 3.00377e-07, No Iterations 1
smoothSolver:  Solving for Uz, Initial residual = 0.027929, Final residual = 1.78957e-07, No Iterations 2
T gas min/max   500, 900
smoothSolver:  Solving for h, Initial residual = 0.0027392, Final residual = 5.45854e-11, No Iterations 1
T gas min/max   500, 900
GAMG:  Solving for p, Initial residual = 0.0115579, Final residual = 6.86307e-07, No Iterations 2
diagonal:  Solving for rho, Initial residual = 0, Final residual = 0, No Iterations 0
time step continuity errors : sum local = 3.09476e-10, global = -2.58182e-11, cumulative = -4.93858e-12
rho max/min : 0.706683 0.397954
PIMPLE: Iteration 6
T gas min/max   500, 900
GAMG:  Solving for p, Initial residual = 0.0115579, Final residual = 6.86307e-07, No Iterations 2
diagonal:  Solving for rho, Initial residual = 0, Final residual = 0, No Iterations 0
time step continuity errors : sum local = 3.09476e-10, global = -2.58182e-11, cumulative = -4.93858e-12
rho max/min : 0.706683 0.397954
PIMPLE: Iteration 6
DILUPBiCGStab:  Solving for C7H16, Initial residual = 0.000287393, Final residual = 4.08937e-11, No Iterations 1
GAMG:  Solving for p, Initial residual = 0.0115579, Final residual = 6.86307e-07, No Iterations 2
diagonal:  Solving for rho, Initial residual = 0, Final residual = 0, No Iterations 0
time step continuity errors : sum local = 3.09476e-10, global = -2.58182e-11, cumulative = -4.93858e-12
rho max/min : 0.706683 0.397954
PIMPLE: Iteration 6
DILUPBiCGStab:  Solving for O2, Initial residual = 0.339925, Final residual = 5.76797e-08, No Iterations 1
smoothSolver:  Solving for Ux, Initial residual = 0.0284687, Final residual = 5.40744e-07, No Iterations 2
smoothSolver:  Solving for Uy, Initial residual = 0.0183716, Final residual = 3.00377e-07, No Iterations 1
smoothSolver:  Solving for Uz, Initial residual = 0.027929, Final residual = 1.78957e-07, No Iterations 2
smoothSolver:  Solving for Ux, Initial residual = 0.0284687, Final residual = 5.40744e-07, No Iterations 2
DILUPBiCGStab:  Solving for CO2, Initial residual = 0.000514341, Final residual = 7.61265e-11, No Iterations 1
smoothSolver:  Solving for Uy, Initial residual = 0.0183716, Final residual = 3.00377e-07, No Iterations 1
smoothSolver:  Solving for Uz, Initial residual = 0.027929, Final residual = 1.78957e-07, No Iterations 2
smoothSolver:  Solving for Ux, Initial residual = 0.0284687, Final residual = 5.40744e-07, No Iterations 2
smoothSolver:  Solving for Uy, Initial residual = 0.0183716, Final residual = 3.00377e-07, No Iterations 1
DILUPBiCGStab:  Solving for H2O, Initial residual = 0.000514341, Final residual = 7.61265e-11, No Iterations 1
smoothSolver:  Solving for Uz, Initial residual = 0.027929, Final residual = 1.78957e-07, No Iterations 2
DILUPBiCGStab:  Solving for C7H16, Initial residual = 0.000287393, Final residual = 4.08937e-11, No Iterations 1
smoothSolver:  Solving for h, Initial residual = 0.00169138, Final residual = 3.14314e-11, No Iterations 1
DILUPBiCGStab:  Solving for O2, Initial residual = 0.339925, Final residual = 5.76797e-08, No Iterations 1
DILUPBiCGStab:  Solving for C7H16, Initial residual = 0.000287393, Final residual = 4.08937e-11, No Iterations 1
DILUPBiCGStab:  Solving for C7H16, Initial residual = 0.000287393, Final residual = 4.08937e-11, No Iterations 1
DILUPBiCGStab:  Solving for O2, Initial residual = 0.339925, Final residual = 5.76797e-08, No Iterations 1
DILUPBiCGStab:  Solving for CO2, Initial residual = 0.000514341, Final residual = 7.61265e-11, No Iterations 1
T gas min/max   500, 900
DILUPBiCGStab:  Solving for O2, Initial residual = 0.339925, Final residual = 5.76797e-08, No Iterations 1
DILUPBiCGStab:  Solving for CO2, Initial residual = 0.000514341, Final residual = 7.61265e-11, No Iterations 1
DILUPBiCGStab:  Solving for H2O, Initial residual = 0.000514341, Final residual = 7.61265e-11, No Iterations 1
DILUPBiCGStab:  Solving for CO2, Initial residual = 0.000514341, Final residual = 7.61265e-11, No Iterations 1
GAMG:  Solving for p, Initial residual = 0.0118534, Final residual = 3.34146e-08, No Iterations 3
diagonal:  Solving for rho, Initial residual = 0, Final residual = 0, No Iterations 0
time step continuity errors : sum local = 1.50858e-11, global = -2.51869e-13, cumulative = -5.19045e-12
rho max/min : 0.706737 0.397985
DILUPBiCGStab:  Solving for H2O, Initial residual = 0.000514341, Final residual = 7.61265e-11, No Iterations 1
DILUPBiCGStab:  Solving for H2O, Initial residual = 0.000514341, Final residual = 7.61265e-11, No Iterations 1
smoothSolver:  Solving for h, Initial residual = 0.00169138, Final residual = 3.14314e-11, No Iterations 1
smoothSolver:  Solving for h, Initial residual = 0.00188358, Final residual = 5.85611e-11, No Iterations 1
smoothSolver:  Solving for h, Initial residual = 0.00169138, Final residual = 3.14314e-11, No Iterations 1
smoothSolver:  Solving for h, Initial residual = 0.00169138, Final residual = 3.14314e-11, No Iterations 1
T gas min/max   500, 900
T gas min/max   500, 900
GAMG:  Solving for p, Initial residual = 0.0118534, Final residual = 3.34146e-08, No Iterations 3
diagonal:  Solving for rho, Initial residual = 0, Final residual = 0, No Iterations 0
time step continuity errors : sum local = 1.50858e-11, global = -2.51869e-13, cumulative = -5.19045e-12
T gas min/max   500, 900
rho max/min : 0.706737 0.397985
T gas min/max   500, 900
GAMG:  Solving for p, Initial residual = 0.00469684, Final residual = 5.45835e-07, No Iterations 2
diagonal:  Solving for rho, Initial residual = 0, Final residual = 0, No Iterations 0
time step continuity errors : sum local = 2.484e-10, global = 1.22747e-11, cumulative = 7.08429e-12
rho max/min : 0.706749 0.397979
PIMPLE: Iteration 7
GAMG:  Solving for p, Initial residual = 0.0118534, Final residual = 3.34146e-08, No Iterations 3
GAMG:  Solving for p, Initial residual = 0.0118534, Final residual = 3.34146e-08, No Iterations 3
diagonal:  Solving for rho, Initial residual = 0, Final residual = 0, No Iterations 0
time step continuity errors : sum local = 1.50858e-11, global = -2.51869e-13, cumulative = -5.19045e-12
diagonal:  Solving for rho, Initial residual = 0, Final residual = 0, No Iterations 0
rho max/min : 0.706737 0.397985
time step continuity errors : sum local = 1.50858e-11, global = -2.51869e-13, cumulative = -5.19045e-12
rho max/min : 0.706737 0.397985
smoothSolver:  Solving for h, Initial residual = 0.00188358, Final residual = 5.85611e-11, No Iterations 1
smoothSolver:  Solving for Ux, Initial residual = 0.0302001, Final residual = 4.81168e-07, No Iterations 2
smoothSolver:  Solving for Uy, Initial residual = 0.00931616, Final residual = 1.55758e-07, No Iterations 1
T gas min/max   500, 900
smoothSolver:  Solving for Uz, Initial residual = 0.0282835, Final residual = 1.6271e-07, No Iterations 2
smoothSolver:  Solving for h, Initial residual = 0.00188358, Final residual = 5.85611e-11, No Iterations 1
smoothSolver:  Solving for h, Initial residual = 0.00188358, Final residual = 5.85611e-11, No Iterations 1
GAMG:  Solving for p, Initial residual = 0.00469684, Final residual = 5.45835e-07, No Iterations 2
diagonal:  Solving for rho, Initial residual = 0, Final residual = 0, No Iterations 0
time step continuity errors : sum local = 2.484e-10, global = 1.22747e-11, cumulative = 7.08429e-12
rho max/min : 0.706749 0.397979
PIMPLE: Iteration 7
T gas min/max   500, 900
T gas min/max   500, 900
DILUPBiCGStab:  Solving for C7H16, Initial residual = 2.32444e-05, Final residual = 3.28125e-12, No Iterations 1
smoothSolver:  Solving for Ux, Initial residual = 0.0302001, Final residual = 4.81168e-07, No Iterations 2
GAMG:  Solving for p, Initial residual = 0.00469684, Final residual = 5.45835e-07, No Iterations 2
GAMG:  Solving for p, Initial residual = 0.00469684, Final residual = 5.45835e-07, No Iterations 2
smoothSolver:  Solving for Uy, Initial residual = 0.00931616, Final residual = 1.55758e-07, No Iterations 1
diagonal:  Solving for rho, Initial residual = 0, Final residual = 0, No Iterations 0
diagonal:  Solving for rho, Initial residual = 0, Final residual = 0, No Iterations 0
time step continuity errors : sum local = 2.484e-10, global = 1.22747e-11, cumulative = 7.08429e-12
rho max/min : 0.706749 0.397979
time step continuity errors : sum local = 2.484e-10, global = 1.22747e-11, cumulative = 7.08429e-12
rho max/min : 0.706749 0.397979
PIMPLE: Iteration 7
PIMPLE: Iteration 7
smoothSolver:  Solving for Uz, Initial residual = 0.0282835, Final residual = 1.6271e-07, No Iterations 2
DILUPBiCGStab:  Solving for O2, Initial residual = 0.366969, Final residual = 5.16279e-08, No Iterations 1
DILUPBiCGStab:  Solving for CO2, Initial residual = 0.000699256, Final residual = 1.01757e-10, No Iterations 1
smoothSolver:  Solving for Ux, Initial residual = 0.0302001, Final residual = 4.81168e-07, No Iterations 2
smoothSolver:  Solving for Ux, Initial residual = 0.0302001, Final residual = 4.81168e-07, No Iterations 2
DILUPBiCGStab:  Solving for H2O, Initial residual = 0.000699256, Final residual = 1.01757e-10, No Iterations 1
smoothSolver:  Solving for Uy, Initial residual = 0.00931616, Final residual = 1.55758e-07, No Iterations 1
smoothSolver:  Solving for Uy, Initial residual = 0.00931616, Final residual = 1.55758e-07, No Iterations 1
smoothSolver:  Solving for Uz, Initial residual = 0.0282835, Final residual = 1.6271e-07, No Iterations 2
smoothSolver:  Solving for Uz, Initial residual = 0.0282835, Final residual = 1.6271e-07, No Iterations 2
DILUPBiCGStab:  Solving for C7H16, Initial residual = 2.32444e-05, Final residual = 3.28125e-12, No Iterations 1
DILUPBiCGStab:  Solving for O2, Initial residual = 0.366969, Final residual = 5.16279e-08, No Iterations 1
smoothSolver:  Solving for h, Initial residual = 0.00117689, Final residual = 3.65416e-11, No Iterations 1
DILUPBiCGStab:  Solving for CO2, Initial residual = 0.000699256, Final residual = 1.01757e-10, No Iterations 1
DILUPBiCGStab:  Solving for C7H16, Initial residual = 2.32444e-05, Final residual = 3.28125e-12, No Iterations 1
DILUPBiCGStab:  Solving for C7H16, Initial residual = 2.32444e-05, Final residual = 3.28125e-12, No Iterations 1
T gas min/max   500, 900
DILUPBiCGStab:  Solving for H2O, Initial residual = 0.000699256, Final residual = 1.01757e-10, No Iterations 1
DILUPBiCGStab:  Solving for O2, Initial residual = 0.366969, Final residual = 5.16279e-08, No Iterations 1
DILUPBiCGStab:  Solving for O2, Initial residual = 0.366969, Final residual = 5.16279e-08, No Iterations 1
GAMG:  Solving for p, Initial residual = 0.00631813, Final residual = 8.38631e-07, No Iterations 2
diagonal:  Solving for rho, Initial residual = 0, Final residual = 0, No Iterations 0
time step continuity errors : sum local = 3.81653e-10, global = 2.7185e-11, cumulative = 3.42693e-11
rho max/min : 0.70675 0.397975
smoothSolver:  Solving for h, Initial residual = 0.00117689, Final residual = 3.65416e-11, No Iterations 1
DILUPBiCGStab:  Solving for CO2, Initial residual = 0.000699256, Final residual = 1.01757e-10, No Iterations 1
DILUPBiCGStab:  Solving for CO2, Initial residual = 0.000699256, Final residual = 1.01757e-10, No Iterations 1
smoothSolver:  Solving for h, Initial residual = 0.00103334, Final residual = 3.75514e-11, No Iterations 1
DILUPBiCGStab:  Solving for H2O, Initial residual = 0.000699256, Final residual = 1.01757e-10, No Iterations 1
DILUPBiCGStab:  Solving for H2O, Initial residual = 0.000699256, Final residual = 1.01757e-10, No Iterations 1
T gas min/max   500, 900
GAMG:  Solving for p, Initial residual = 0.00631813, Final residual = 8.38631e-07, No Iterations 2
diagonal:  Solving for rho, Initial residual = 0, Final residual = 0, No Iterations 0
time step continuity errors : sum local = 3.81653e-10, global = 2.7185e-11, cumulative = 3.42693e-11
rho max/min : 0.70675 0.397975
T gas min/max   500, 900
smoothSolver:  Solving for h, Initial residual = 0.00117689, Final residual = 3.65416e-11, No Iterations 1
smoothSolver:  Solving for h, Initial residual = 0.00117689, Final residual = 3.65416e-11, No Iterations 1
GAMG:  Solving for p, Initial residual = 0.00314614, Final residual = 4.16574e-07, No Iterations 2
diagonal:  Solving for rho, Initial residual = 0, Final residual = 0, No Iterations 0
time step continuity errors : sum local = 1.90154e-10, global = 1.581e-11, cumulative = 5.00793e-11
rho max/min : 0.706758 0.397971
PIMPLE: Iteration 8
smoothSolver:  Solving for h, Initial residual = 0.00103334, Final residual = 3.75514e-11, No Iterations 1
T gas min/max   500, 900
T gas min/max   500, 900
T gas min/max   500, 900
GAMG:  Solving for p, Initial residual = 0.00631813, Final residual = 8.38631e-07, No Iterations 2
GAMG:  Solving for p, Initial residual = 0.00631813, Final residual = 8.38631e-07, No Iterations 2
smoothSolver:  Solving for Ux, Initial residual = 0.0265755, Final residual = 4.38312e-07, No Iterations 2
diagonal:  Solving for rho, Initial residual = 0, Final residual = 0, No Iterations 0
diagonal:  Solving for rho, Initial residual = 0, Final residual = 0, No Iterations 0
time step continuity errors : sum local = 3.81653e-10, global = 2.7185e-11, cumulative = 3.42693e-11
time step continuity errors : sum local = 3.81653e-10, global = 2.7185e-11, cumulative = 3.42693e-11
rho max/min : 0.70675 0.397975
rho max/min : 0.70675 0.397975
smoothSolver:  Solving for Uy, Initial residual = 0.00447421, Final residual = 7.75229e-08, No Iterations 1
smoothSolver:  Solving for Uz, Initial residual = 0.0243686, Final residual = 1.46715e-07, No Iterations 2
GAMG:  Solving for p, Initial residual = 0.00314614, Final residual = 4.16574e-07, No Iterations 2
diagonal:  Solving for rho, Initial residual = 0, Final residual = 0, No Iterations 0
time step continuity errors : sum local = 1.90154e-10, global = 1.581e-11, cumulative = 5.00793e-11
rho max/min : 0.706758 0.397971
PIMPLE: Iteration 8
smoothSolver:  Solving for h, Initial residual = 0.00103334, Final residual = 3.75514e-11, No Iterations 1
smoothSolver:  Solving for h, Initial residual = 0.00103334, Final residual = 3.75514e-11, No Iterations 1
DILUPBiCGStab:  Solving for C7H16, Initial residual = 3.85427e-05, Final residual = 4.88437e-12, No Iterations 1
smoothSolver:  Solving for Ux, Initial residual = 0.0265755, Final residual = 4.38312e-07, No Iterations 2
smoothSolver:  Solving for Uy, Initial residual = 0.00447421, Final residual = 7.75229e-08, No Iterations 1
smoothSolver:  Solving for Uz, Initial residual = 0.0243686, Final residual = 1.46715e-07, No Iterations 2
T gas min/max   500, 900
T gas min/max   500, 900
DILUPBiCGStab:  Solving for O2, Initial residual = 0.367691, Final residual = 3.65908e-08, No Iterations 1
GAMG:  Solving for p, Initial residual = 0.00314614, Final residual = 4.16574e-07, No Iterations 2
GAMG:  Solving for p, Initial residual = 0.00314614, Final residual = 4.16574e-07, No Iterations 2
diagonal:  Solving for rho, Initial residual = 0, Final residual = 0, No Iterations 0
time step continuity errors : sum local = 1.90154e-10, global = 1.581e-11, cumulative = 5.00793e-11
DILUPBiCGStab:  Solving for CO2, Initial residual = 0.000221484, Final residual = 3.60418e-11, No Iterations 1
rho max/min : 0.706758 0.397971
diagonal:  Solving for rho, Initial residual = 0, Final residual = 0, No Iterations 0
time step continuity errors : sum local = 1.90154e-10, global = 1.581e-11, cumulative = 5.00793e-11
rho max/min : 0.706758 0.397971
PIMPLE: Iteration 8
PIMPLE: Iteration 8
DILUPBiCGStab:  Solving for C7H16, Initial residual = 3.85427e-05, Final residual = 4.88437e-12, No Iterations 1
DILUPBiCGStab:  Solving for H2O, Initial residual = 0.000221484, Final residual = 3.60418e-11, No Iterations 1
DILUPBiCGStab:  Solving for O2, Initial residual = 0.367691, Final residual = 3.65908e-08, No Iterations 1
smoothSolver:  Solving for Ux, Initial residual = 0.0265755, Final residual = 4.38312e-07, No Iterations 2
smoothSolver:  Solving for Ux, Initial residual = 0.0265755, Final residual = 4.38312e-07, No Iterations 2
smoothSolver:  Solving for Uy, Initial residual = 0.00447421, Final residual = 7.75229e-08, No Iterations 1
smoothSolver:  Solving for Uy, Initial residual = 0.00447421, Final residual = 7.75229e-08, No Iterations 1
smoothSolver:  Solving for Uz, Initial residual = 0.0243686, Final residual = 1.46715e-07, No Iterations 2
DILUPBiCGStab:  Solving for CO2, Initial residual = 0.000221484, Final residual = 3.60418e-11, No Iterations 1
smoothSolver:  Solving for Uz, Initial residual = 0.0243686, Final residual = 1.46715e-07, No Iterations 2
smoothSolver:  Solving for h, Initial residual = 0.000676917, Final residual = 2.40891e-11, No Iterations 1
DILUPBiCGStab:  Solving for H2O, Initial residual = 0.000221484, Final residual = 3.60418e-11, No Iterations 1
T gas min/max   500, 900
DILUPBiCGStab:  Solving for C7H16, Initial residual = 3.85427e-05, Final residual = 4.88437e-12, No Iterations 1
GAMG:  Solving for p, Initial residual = 0.00407681, Final residual = 5.33722e-07, No Iterations 2
DILUPBiCGStab:  Solving for C7H16, Initial residual = 3.85427e-05, Final residual = 4.88437e-12, No Iterations 1
diagonal:  Solving for rho, Initial residual = 0, Final residual = 0, No Iterations 0
[...]
diagonal:  Solving for rho, Initial residual = 0, Final residual = 0, No Iterations 0
time step continuity errors : sum local = 5.00508e-10, global = 5.63961e-11, cumulative = -3.60073e-10
rho max/min : 0.710151 0.403157
smoothSolver:  Solving for h, Initial residual = 0.00031768, Final residual = 8.19739e-09, No Iterations 1
smoothSolver:  Solving for h, Initial residual = 0.000234026, Final residual = 6.13763e-09, No Iterations 1
smoothSolver:  Solving for h, Initial residual = 0.000234026, Final residual = 6.13763e-09, No Iterations 1
smoothSolver:  Solving for h, Initial residual = 0.000234026, Final residual = 6.13763e-09, No Iterations 1
T gas min/max   500, 900
T gas min/max   500, 900
T gas min/max   500, 900
GAMG:  Solving for p, Initial residual = 0.00197485, Final residual = 4.77476e-07, No Iterations 2
GAMG:  Solving for p, Initial residual = 0.000847168, Final residual = 2.06941e-07, No Iterations 2
diagonal:  Solving for rho, Initial residual = 0, Final residual = 0, No Iterations 0
time step continuity errors : sum local = 5.00508e-10, global = 5.63961e-11, cumulative = -3.60073e-10
rho max/min : 0.710151 0.403157
diagonal:  Solving for rho, Initial residual = 0, Final residual = 0, No Iterations 0
T gas min/max   500, 900
time step continuity errors : sum local = 2.17014e-10, global = 2.49918e-11, cumulative = -3.35081e-10
rho max/min : 0.710152 0.403156
PIMPLE: Iteration 9
GAMG:  Solving for p, Initial residual = 0.000847168, Final residual = 2.06941e-07, No Iterations 2
diagonal:  Solving for rho, Initial residual = 0, Final residual = 0, No Iterations 0
time step continuity errors : sum local = 2.17014e-10, global = 2.49918e-11, cumulative = -3.35081e-10
rho max/min : 0.710152 0.403156
PIMPLE: Iteration 9
GAMG:  Solving for p, Initial residual = 0.000847168, Final residual = 2.06941e-07, No Iterations 2
diagonal:  Solving for rho, Initial residual = 0, Final residual = 0, No Iterations 0
time step continuity errors : sum local = 2.17014e-10, global = 2.49918e-11, cumulative = -3.35081e-10
rho max/min : 0.710152 0.403156
PIMPLE: Iteration 9
smoothSolver:  Solving for h, Initial residual = 0.000234026, Final residual = 6.13763e-09, No Iterations 1
smoothSolver:  Solving for Ux, Initial residual = 0.0106324, Final residual = 3.30364e-07, No Iterations 1
smoothSolver:  Solving for Uy, Initial residual = 0.000645936, Final residual = 1.17493e-08, No Iterations 1
smoothSolver:  Solving for Uz, Initial residual = 0.00925876, Final residual = 3.05426e-07, No Iterations 1
smoothSolver:  Solving for Ux, Initial residual = 0.0106324, Final residual = 3.30364e-07, No Iterations 1
smoothSolver:  Solving for Uy, Initial residual = 0.000645936, Final residual = 1.17493e-08, No Iterations 1
smoothSolver:  Solving for Uz, Initial residual = 0.00925876, Final residual = 3.05426e-07, No Iterations 1
smoothSolver:  Solving for Ux, Initial residual = 0.0106324, Final residual = 3.30364e-07, No Iterations 1
smoothSolver:  Solving for Uy, Initial residual = 0.000645936, Final residual = 1.17493e-08, No Iterations 1
smoothSolver:  Solving for Uz, Initial residual = 0.00925876, Final residual = 3.05426e-07, No Iterations 1
T gas min/max   500, 900
GAMG:  Solving for p, Initial residual = 0.000847168, Final residual = 2.06941e-07, No Iterations 2
diagonal:  Solving for rho, Initial residual = 0, Final residual = 0, No Iterations 0
time step continuity errors : sum local = 2.17014e-10, global = 2.49918e-11, cumulative = -3.35081e-10
rho max/min : 0.710152 0.403156
PIMPLE: Iteration 9
DILUPBiCGStab:  Solving for C7H16, Initial residual = 0.000497303, Final residual = 8.94021e-09, No Iterations 1
smoothSolver:  Solving for Ux, Initial residual = 0.0106324, Final residual = 3.30364e-07, No Iterations 1
DILUPBiCGStab:  Solving for C7H16, Initial residual = 0.000497303, Final residual = 8.94021e-09, No Iterations 1
smoothSolver:  Solving for Uy, Initial residual = 0.000645936, Final residual = 1.17493e-08, No Iterations 1
smoothSolver:  Solving for Uz, Initial residual = 0.00925876, Final residual = 3.05426e-07, No Iterations 1
DILUPBiCGStab:  Solving for O2, Initial residual = 0.278719, Final residual = 7.7671e-11, No Iterations 1
DILUPBiCGStab:  Solving for C7H16, Initial residual = 0.000497303, Final residual = 8.94021e-09, No Iterations 1
DILUPBiCGStab:  Solving for O2, Initial residual = 0.278719, Final residual = 7.7671e-11, No Iterations 1
DILUPBiCGStab:  Solving for O2, Initial residual = 0.278719, Final residual = 7.7671e-11, No Iterations 1
DILUPBiCGStab:  Solving for CO2, Initial residual = 0.00295137, Final residual = 5.46564e-08, No Iterations 1
DILUPBiCGStab:  Solving for CO2, Initial residual = 0.00295137, Final residual = 5.46564e-08, No Iterations 1
DILUPBiCGStab:  Solving for CO2, Initial residual = 0.00295137, Final residual = 5.46564e-08, No Iterations 1
DILUPBiCGStab:  Solving for H2O, Initial residual = 0.00295137, Final residual = 5.46564e-08, No Iterations 1
DILUPBiCGStab:  Solving for H2O, Initial residual = 0.00295137, Final residual = 5.46564e-08, No Iterations 1
DILUPBiCGStab:  Solving for C7H16, Initial residual = 0.000497303, Final residual = 8.94021e-09, No Iterations 1
DILUPBiCGStab:  Solving for H2O, Initial residual = 0.00295137, Final residual = 5.46564e-08, No Iterations 1
DILUPBiCGStab:  Solving for O2, Initial residual = 0.278719, Final residual = 7.7671e-11, No Iterations 1
smoothSolver:  Solving for h, Initial residual = 0.000156646, Final residual = 4.15237e-09, No Iterations 1
smoothSolver:  Solving for h, Initial residual = 0.000156646, Final residual = 4.15237e-09, No Iterations 1
smoothSolver:  Solving for h, Initial residual = 0.000156646, Final residual = 4.15237e-09, No Iterations 1
DILUPBiCGStab:  Solving for CO2, Initial residual = 0.00295137, Final residual = 5.46564e-08, No Iterations 1
T gas min/max   500, 900
T gas min/max   500, 900
T gas min/max   500, 900
DILUPBiCGStab:  Solving for H2O, Initial residual = 0.00295137, Final residual = 5.46564e-08, No Iterations 1
GAMG:  Solving for p, Initial residual = 0.000933133, Final residual = 2.13074e-07, No Iterations 2
diagonal:  Solving for rho, Initial residual = 0, Final residual = 0, No Iterations 0
time step continuity errors : sum local = 2.23428e-10, global = 2.48357e-11, cumulative = -3.10245e-10
rho max/min : 0.71015 0.403149
GAMG:  Solving for p, Initial residual = 0.000933133, Final residual = 2.13074e-07, No Iterations 2
diagonal:  Solving for rho, Initial residual = 0, Final residual = 0, No Iterations 0
time step continuity errors : sum local = 2.23428e-10, global = 2.48357e-11, cumulative = -3.10245e-10
rho max/min : 0.71015 0.403149
GAMG:  Solving for p, Initial residual = 0.000933133, Final residual = 2.13074e-07, No Iterations 2
diagonal:  Solving for rho, Initial residual = 0, Final residual = 0, No Iterations 0
time step continuity errors : sum local = 2.23428e-10, global = 2.48357e-11, cumulative = -3.10245e-10
rho max/min : 0.71015 0.403149
smoothSolver:  Solving for h, Initial residual = 0.000156646, Final residual = 4.15237e-09, No Iterations 1
smoothSolver:  Solving for h, Initial residual = 0.000113039, Final residual = 2.88358e-09, No Iterations 1
smoothSolver:  Solving for h, Initial residual = 0.000113039, Final residual = 2.88358e-09, No Iterations 1
smoothSolver:  Solving for h, Initial residual = 0.000113039, Final residual = 2.88358e-09, No Iterations 1
T gas min/max   500, 900
T gas min/max   500, 900
GAMG:  Solving for p, Initial residual = 0.000933133, Final residual = 2.13074e-07, No Iterations 2
diagonal:  Solving for rho, Initial residual = 0, Final residual = 0, No Iterations 0
time step continuity errors : sum local = 2.23428e-10, global = 2.48357e-11, cumulative = -3.10245e-10
rho max/min : 0.71015 0.403149
T gas min/max   500, 900
T gas min/max   500, 900
GAMG:  Solving for p, Initial residual = 0.00040811, Final residual = 8.93839e-08, No Iterations 2
diagonal:  Solving for rho, Initial residual = 0, Final residual = 0, No Iterations 0
time step continuity errors : sum local = 9.37387e-11, global = 1.02365e-11, cumulative = -3.00009e-10
rho max/min : 0.710151 0.403148
PIMPLE: Iteration 10
GAMG:  Solving for p, Initial residual = 0.00040811, Final residual = 8.93839e-08, No Iterations 2
diagonal:  Solving for rho, Initial residual = 0, Final residual = 0, No Iterations 0
time step continuity errors : sum local = 9.37387e-11, global = 1.02365e-11, cumulative = -3.00009e-10
rho max/min : 0.710151 0.403148
PIMPLE: Iteration 10
GAMG:  Solving for p, Initial residual = 0.00040811, Final residual = 8.93839e-08, No Iterations 2
diagonal:  Solving for rho, Initial residual = 0, Final residual = 0, No Iterations 0
time step continuity errors : sum local = 9.37387e-11, global = 1.02365e-11, cumulative = -3.00009e-10
rho max/min : 0.710151 0.403148
PIMPLE: Iteration 10
smoothSolver:  Solving for h, Initial residual = 0.000113039, Final residual = 2.88358e-09, No Iterations 1
smoothSolver:  Solving for Ux, Initial residual = 0.00679086, Final residual = 1.98553e-07, No Iterations 1
smoothSolver:  Solving for Uy, Initial residual = 0.0003205, Final residual = 5.73985e-09, No Iterations 1
smoothSolver:  Solving for Uz, Initial residual = 0.00588773, Final residual = 1.8369e-07, No Iterations 1
smoothSolver:  Solving for Ux, Initial residual = 0.00679086, Final residual = 1.98553e-07, No Iterations 1
T gas min/max   500, 900
smoothSolver:  Solving for Uy, Initial residual = 0.0003205, Final residual = 5.73985e-09, No Iterations 1
smoothSolver:  Solving for Ux, Initial residual = 0.00679086, Final residual = 1.98553e-07, No Iterations 1
smoothSolver:  Solving for Uz, Initial residual = 0.00588773, Final residual = 1.8369e-07, No Iterations 1
smoothSolver:  Solving for Uy, Initial residual = 0.0003205, Final residual = 5.73985e-09, No Iterations 1
smoothSolver:  Solving for Uz, Initial residual = 0.00588773, Final residual = 1.8369e-07, No Iterations 1
GAMG:  Solving for p, Initial residual = 0.00040811, Final residual = 8.93839e-08, No Iterations 2
diagonal:  Solving for rho, Initial residual = 0, Final residual = 0, No Iterations 0
time step continuity errors : sum local = 9.37387e-11, global = 1.02365e-11, cumulative = -3.00009e-10
rho max/min : 0.710151 0.403148
PIMPLE: Iteration 10
DILUPBiCGStab:  Solving for C7H16, Initial residual = 0.000282722, Final residual = 4.9903e-09, No Iterations 1
smoothSolver:  Solving for Ux, Initial residual = 0.00679086, Final residual = 1.98553e-07, No Iterations 1
smoothSolver:  Solving for Uy, Initial residual = 0.0003205, Final residual = 5.73985e-09, No Iterations 1
smoothSolver:  Solving for Uz, Initial residual = 0.00588773, Final residual = 1.8369e-07, No Iterations 1
DILUPBiCGStab:  Solving for C7H16, Initial residual = 0.000282722, Final residual = 4.9903e-09, No Iterations 1
DILUPBiCGStab:  Solving for C7H16, Initial residual = 0.000282722, Final residual = 4.9903e-09, No Iterations 1
DILUPBiCGStab:  Solving for O2, Initial residual = 0.287452, Final residual = 7.05028e-11, No Iterations 1
DILUPBiCGStab:  Solving for O2, Initial residual = 0.287452, Final residual = 7.05028e-11, No Iterations 1
DILUPBiCGStab:  Solving for O2, Initial residual = 0.287452, Final residual = 7.05028e-11, No Iterations 1
DILUPBiCGStab:  Solving for CO2, Initial residual = 0.0014349, Final residual = 2.49484e-08, No Iterations 1
DILUPBiCGStab:  Solving for CO2, Initial residual = 0.0014349, Final residual = 2.49484e-08, No Iterations 1
DILUPBiCGStab:  Solving for CO2, Initial residual = 0.0014349, Final residual = 2.49484e-08, No Iterations 1
DILUPBiCGStab:  Solving for C7H16, Initial residual = 0.000282722, Final residual = 4.9903e-09, No Iterations 1
DILUPBiCGStab:  Solving for H2O, Initial residual = 0.0014349, Final residual = 2.49485e-08, No Iterations 1
DILUPBiCGStab:  Solving for H2O, Initial residual = 0.0014349, Final residual = 2.49485e-08, No Iterations 1
DILUPBiCGStab:  Solving for O2, Initial residual = 0.287452, Final residual = 7.05028e-11, No Iterations 1
DILUPBiCGStab:  Solving for H2O, Initial residual = 0.0014349, Final residual = 2.49485e-08, No Iterations 1
smoothSolver:  Solving for h, Initial residual = 7.5791e-05, Final residual = 1.94747e-09, No Iterations 1
DILUPBiCGStab:  Solving for CO2, Initial residual = 0.0014349, Final residual = 2.49484e-08, No Iterations 1
smoothSolver:  Solving for h, Initial residual = 7.5791e-05, Final residual = 1.94747e-09, No Iterations 1
smoothSolver:  Solving for h, Initial residual = 7.5791e-05, Final residual = 1.94747e-09, No Iterations 1
DILUPBiCGStab:  Solving for H2O, Initial residual = 0.0014349, Final residual = 2.49485e-08, No Iterations 1
T gas min/max   500, 900
T gas min/max   500, 900
GAMG:  Solving for p, Initial residual = 0.000437282, Final residual = 8.99626e-08, No Iterations 2
T gas min/max   500, 900
diagonal:  Solving for rho, Initial residual = 0, Final residual = 0, No Iterations 0
time step continuity errors : sum local = 9.43412e-11, global = 9.28374e-12, cumulative = -2.90725e-10
rho max/min : 0.710149 0.403145
GAMG:  Solving for p, Initial residual = 0.000437282, Final residual = 8.99626e-08, No Iterations 2
diagonal:  Solving for rho, Initial residual = 0, Final residual = 0, No Iterations 0
time step continuity errors : sum local = 9.43412e-11, global = 9.28374e-12, cumulative = -2.90725e-10
smoothSolver:  Solving for h, Initial residual = 7.5791e-05, Final residual = 1.94747e-09, No Iterations 1
rho max/min : 0.710149 0.403145
GAMG:  Solving for p, Initial residual = 0.000437282, Final residual = 8.99626e-08, No Iterations 2
diagonal:  Solving for rho, Initial residual = 0, Final residual = 0, No Iterations 0
time step continuity errors : sum local = 9.43412e-11, global = 9.28374e-12, cumulative = -2.90725e-10
rho max/min : 0.710149 0.403145
smoothSolver:  Solving for h, Initial residual = 4.91341e-05, Final residual = 1.22537e-09, No Iterations 1
T gas min/max   500, 900
smoothSolver:  Solving for h, Initial residual = 4.91341e-05, Final residual = 1.22537e-09, No Iterations 1
smoothSolver:  Solving for h, Initial residual = 4.91341e-05, Final residual = 1.22537e-09, No Iterations 1
GAMG:  Solving for p, Initial residual = 0.000437282, Final residual = 8.99626e-08, No Iterations 2
T gas min/max   500, 900
diagonal:  Solving for rho, Initial residual = 0, Final residual = 0, No Iterations 0
time step continuity errors : sum local = 9.43412e-11, global = 9.28374e-12, cumulative = -2.90725e-10
rho max/min : 0.710149 0.403145
GAMG:  Solving for p, Initial residual = 0.000199101, Final residual = 3.72362e-08, No Iterations 2
T gas min/max   500, 900
diagonal:  Solving for rho, Initial residual = 0, Final residual = 0, No Iterations 0
time step continuity errors : sum local = 3.90494e-11, global = 3.39022e-12, cumulative = -2.87335e-10
rho max/min : 0.710149 0.403145
PIMPLE: Iteration 11
T gas min/max   500, 900
GAMG:  Solving for p, Initial residual = 0.000199101, Final residual = 3.72362e-08, No Iterations 2
diagonal:  Solving for rho, Initial residual = 0, Final residual = 0, No Iterations 0
smoothSolver:  Solving for h, Initial residual = 4.91341e-05, Final residual = 1.22537e-09, No Iterations 1
time step continuity errors : sum local = 3.90494e-11, global = 3.39022e-12, cumulative = -2.87335e-10
rho max/min : 0.710149 0.403145
PIMPLE: Iteration 11
GAMG:  Solving for p, Initial residual = 0.000199101, Final residual = 3.72362e-08, No Iterations 2
diagonal:  Solving for rho, Initial residual = 0, Final residual = 0, No Iterations 0
time step continuity errors : sum local = 3.90494e-11, global = 3.39022e-12, cumulative = -2.87335e-10
rho max/min : 0.710149 0.403145
PIMPLE: Iteration 11
smoothSolver:  Solving for Ux, Initial residual = 0.00399171, Final residual = 1.08558e-07, No Iterations 1
smoothSolver:  Solving for Uy, Initial residual = 0.000169095, Final residual = 3.07222e-09, No Iterations 1
smoothSolver:  Solving for Uz, Initial residual = 0.00345507, Final residual = 1.00919e-07, No Iterations 1
T gas min/max   500, 900
smoothSolver:  Solving for Ux, Initial residual = 0.00399171, Final residual = 1.08558e-07, No Iterations 1
smoothSolver:  Solving for Uy, Initial residual = 0.000169095, Final residual = 3.07222e-09, No Iterations 1
smoothSolver:  Solving for Uz, Initial residual = 0.00345507, Final residual = 1.00919e-07, No Iterations 1
smoothSolver:  Solving for Ux, Initial residual = 0.00399171, Final residual = 1.08558e-07, No Iterations 1
smoothSolver:  Solving for Uy, Initial residual = 0.000169095, Final residual = 3.07222e-09, No Iterations 1
GAMG:  Solving for p, Initial residual = 0.000199101, Final residual = 3.72362e-08, No Iterations 2
diagonal:  Solving for rho, Initial residual = 0, Final residual = 0, No Iterations 0
smoothSolver:  Solving for Uz, Initial residual = 0.00345507, Final residual = 1.00919e-07, No Iterations 1
time step continuity errors : sum local = 3.90494e-11, global = 3.39022e-12, cumulative = -2.87335e-10
rho max/min : 0.710149 0.403145
PIMPLE: Iteration 11
DILUPBiCGStab:  Solving for C7H16, Initial residual = 0.000171052, Final residual = 2.55705e-09, No Iterations 1
smoothSolver:  Solving for Ux, Initial residual = 0.00399171, Final residual = 1.08558e-07, No Iterations 1
smoothSolver:  Solving for Uy, Initial residual = 0.000169095, Final residual = 3.07222e-09, No Iterations 1
smoothSolver:  Solving for Uz, Initial residual = 0.00345507, Final residual = 1.00919e-07, No Iterations 1
DILUPBiCGStab:  Solving for O2, Initial residual = 0.293355, Final residual = 6.37452e-11, No Iterations 1
DILUPBiCGStab:  Solving for C7H16, Initial residual = 0.000171052, Final residual = 2.55705e-09, No Iterations 1
DILUPBiCGStab:  Solving for C7H16, Initial residual = 0.000171052, Final residual = 2.55705e-09, No Iterations 1
DILUPBiCGStab:  Solving for CO2, Initial residual = 0.00106201, Final residual = 1.7176e-08, No Iterations 1
DILUPBiCGStab:  Solving for O2, Initial residual = 0.293355, Final residual = 6.37452e-11, No Iterations 1
DILUPBiCGStab:  Solving for O2, Initial residual = 0.293355, Final residual = 6.37452e-11, No Iterations 1
DILUPBiCGStab:  Solving for H2O, Initial residual = 0.00106201, Final residual = 1.7176e-08, No Iterations 1
DILUPBiCGStab:  Solving for C7H16, Initial residual = 0.000171052, Final residual = 2.55705e-09, No Iterations 1
DILUPBiCGStab:  Solving for CO2, Initial residual = 0.00106201, Final residual = 1.7176e-08, No Iterations 1
DILUPBiCGStab:  Solving for CO2, Initial residual = 0.00106201, Final residual = 1.7176e-08, No Iterations 1
DILUPBiCGStab:  Solving for O2, Initial residual = 0.293355, Final residual = 6.37452e-11, No Iterations 1
DILUPBiCGStab:  Solving for H2O, Initial residual = 0.00106201, Final residual = 1.7176e-08, No Iterations 1
DILUPBiCGStab:  Solving for H2O, Initial residual = 0.00106201, Final residual = 1.7176e-08, No Iterations 1
smoothSolver:  Solving for h, Initial residual = 3.27698e-05, Final residual = 8.27272e-10, No Iterations 1
DILUPBiCGStab:  Solving for CO2, Initial residual = 0.00106201, Final residual = 1.7176e-08, No Iterations 1
smoothSolver:  Solving for h, Initial residual = 3.27698e-05, Final residual = 8.27272e-10, No Iterations 1
T gas min/max   500, 900
smoothSolver:  Solving for h, Initial residual = 3.27698e-05, Final residual = 8.27272e-10, No Iterations 1
DILUPBiCGStab:  Solving for H2O, Initial residual = 0.00106201, Final residual = 1.7176e-08, No Iterations 1
GAMG:  Solving for p, Initial residual = 0.000221201, Final residual = 3.97055e-08, No Iterations 2
diagonal:  Solving for rho, Initial residual = 0, Final residual = 0, No Iterations 0
time step continuity errors : sum local = 4.1638e-11, global = 2.62228e-12, cumulative = -2.84712e-10
rho max/min : 0.710148 0.403144
T gas min/max   500, 900
T gas min/max   500, 900
smoothSolver:  Solving for h, Initial residual = 3.27698e-05, Final residual = 8.27272e-10, No Iterations 1
