Invalid MIT-MAGIC-COOKIE-1 key/*---------------------------------------------------------------------------*\
  =========                 |
  \\      /  F ield         | OpenFOAM: The Open Source CFD Toolbox
   \\    /   O peration     | Website:  https://openfoam.org
    \\  /    A nd           | Version:  8
     \\/     M anipulation  |
\*---------------------------------------------------------------------------*/
Build  : 8
Exec   : sprayFilmFoam -parallel
Date   : Dec 28 2020
Time   : 22:07:38
Host   : "edo20-HP-Pavilion-Notebook"
PID    : 328426
I/O    : uncollated
Case   : /home/edo20/Piscaglia/Shared_docker_folder/Shared_CTTP/testEdo/3D/combustor3D-wf
nProcs : 4
Slaves : 
3
(
"edo20-HP-Pavilion-Notebook.328427"
"edo20-HP-Pavilion-Notebook.328428"
"edo20-HP-Pavilion-Notebook.328429"
)

Pstream initialized with:
    floatTransfer      : 0
    nProcsSimpleSum    : 0
    commsType          : nonBlocking
    polling iterations : 0
sigFpe : Enabling floating point exception trapping (FOAM_SIGFPE).
fileModificationChecking : Monitoring run-time modified files using timeStampMaster (fileModificationSkew 10)
allowSystemOperations : Allowing user-supplied system call operations

// * * * * * * * * * * * * * * * * * * * * * * * * * * * * * * * * * * * * * //
Create time

Create mesh for time = 0


PIMPLE: No convergence criteria found


PIMPLE: Corrector convergence criteria found
        p: tolerance 0.0001, relTol 0
        U: tolerance 1e-05, relTol 0
        Calculations will do 30 corrections if the convergence criteria are not met


PIMPLE: Operating solver in transient mode with 30 outer correctors



Reading g
Reading thermophysical properties

Selecting thermodynamics package 
{
    type            hePsiThermo;
    mixture         multiComponentMixture;
    transport       sutherland;
    thermo          janaf;
    energy          sensibleEnthalpy;
    equationOfState perfectGas;
    specie          specie;
}

Creating component thermo properties:
    multi-component carrier - 5 species
    liquids - 1 components
    solids - 0 components

Reading field U

Reading/calculating face flux field phi

Creating turbulence model

Selecting turbulence model type RAS
Selecting RAS turbulence model kEpsilon
RAS
{
    RASModel        kEpsilon;
    turbulence      on;
    printCoeffs     on;
    Cmu             0.09;
    C1              1.44;
    C2              1.92;
    C3              0;
    sigmak          1;
    sigmaEps        1.3;
}

Creating thermophysical transport model

Selecting thermophysical transport type RAS
Selecting default RAS thermophysical transport model eddyDiffusivity
Creating combustion model

Selecting combustion model none
Creating field dpdt

Creating field kinetic energy K

No MRF models present


Constructing reacting cloud
Constructing particle forces
    Selecting particle force sphereDrag
Constructing cloud functions
    Selecting cloud function facePostProcessing of type facePostProcessing
    Selecting cloud function particleTrack1 of type particleTracks
    Selecting cloud function voidFraction1 of type voidFraction
    Selecting cloud function patchPostProcessing of type patchPostProcessing
Constructing particle injection models
Creating injector: model1
Selecting injection model coneInjection
    Constructing 3-D injection
Selecting distribution model RosinRammler
    Distribution min: 1e-06 max: 0.00015 mean: 0.00015
Selecting dispersion model none
Selecting patch interaction model standardWallInteraction
Selecting stochastic collision model none
Selecting surface film model thermoSurfaceFilm
    Applying absorb interaction model
Selecting U integration scheme Euler
Selecting heat transfer model RanzMarshall
Selecting T integration scheme analytical
Selecting composition model singlePhaseMixture
Selecting phase change model liquidEvaporationBoil
Participating liquid species:
    C7H16
Selecting AtomizationModel none
Selecting BreakupModel ReitzKHRT
Average parcel mass: 5e-10
Radiation model not active: radiationProperties not found
Selecting radiationModel none
Creating finite volume options from "system/fvOptions"

Selecting finite volume options model type limitTemperature
    Source: limitT
    - selecting all cells
    - selected 1117301 cell(s) with volume 0.0360639
Selecting finite volume options model type limitVelocity
    Source: limitU
    - selecting all cells
    - selected 1117301 cell(s) with volume 0.0360639

Constructing surface film model
Selecting surfaceFilmModel thermoSingleLayer
    Selecting region model functions
    none

PIMPLE: No convergence criteria found


PIMPLE: Operating solver in transient mode with 1 outer corrector
PIMPLE: Operating solver in PISO mode


    Selecting filmThermoModel liquid
    Selecting film injection models
        curvatureSeparation
        drippingInjection
Selecting distribution model RosinRammler
    Distribution min: 1e-06 max: 0.00015 mean: 0.00015
    Selecting film transfer models
        none
    Selecting filmMomentumTransportModel laminar
    Selecting film force models
        thermocapillary
        distributionContactAngle
Selecting distribution model normal
    Distribution min: 50 max: 100 mean: 75
    Selecting filmViscosityModel liquid
    Selecting heatTransferModel constant
    Selecting heatTransferModel constant
    Selecting phaseChangeModel standardPhaseChange
    Selecting radiationModel none
[3] #0  Foam::error::printStack(Foam::Ostream&)[0] #0  Foam::error::printStack(Foam::Ostream&)[1] #0  Foam::error::printStack(Foam::Ostream&)[2] #0  Foam::error::printStack(Foam::Ostream&) at ??:?
 at ??:?
 at ??:?
 at ??:?
[2] #1  Foam::sigFpe::sigHandler(int)[0] #1  Foam::sigFpe::sigHandler(int)[3] #1  Foam::sigFpe::sigHandler(int)[1] #1  Foam::sigFpe::sigHandler(int) at ??:?
[2] #2  ? at ??:?
[3] #2   at ??:?
?[0] #2  ? at ??:?
[1] #2  ? in "/lib/x86_64-linux-gnu/libc.so.6"
 in [0] #3  ?"/lib/x86_64-linux-gnu/libc.so.6"
[1] #3  ? in "/lib/x86_64-linux-gnu/libc.so.6"
[2] #3  ? in "/lib/x86_64-linux-gnu/libc.so.6"
[3] #3  ? in "/lib/x86_64-linux-gnu/libm.so.6"
[0] #4  powf64 in "/lib/x86_64-linux-gnu/libm.so.6"
[1] #4  powf64 in "/lib/x86_64-linux-gnu/libm.so.6"
 in "/lib/x86_64-linux-g[2] #4  powf64nu/libm.so.6"
[3] #4  powf64 in "/lib/x86_64-linux-gnu/libm.so.6"
 in "/lib/x86_64-linux-gnu/libm.so[1] #5  .6"
Foam::C7H16::rho(double, double) const[0] #5  Foam::C7H16::rho(double, double) const in "/lib/x86_64-linux-gnu/libm.so.6"
 in "/lib/x86_64-linux-gnu/libm.so.6"
[2] #5  Foam::C7H16::rho(double, double) const[3] #5  Foam::C7H16::rho(double, double) const at ??:?
[0] #6  Foam::regionModels::surfaceFilmModels::liquidFilmThermo::rho() const at ??:?
[1] #6  Foam::regionModels::surfaceFilmModels::liquidFilmThermo::rho() const at ??:?
[3] #6  Foam::regionModels::surfaceFilmModels::liquidFilmThermo::rho() const at ??:?
[2] #6  Foam::regionModels::surfaceFilmModels::liquidFilmThermo::rho() const at ??:?
[3] #7  Foam::regionModels::surfaceFilmModels::thermoSingleLayer::correctThermoFields() at ??:?
[0] #7  Foam::regionModels::surfaceFilmModels::thermoSingleLayer::correctThermoFields() at ??:?
[1] #7  Foam::regionModels::surfaceFilmModels::thermoSingleLayer::correctThermoFields() at ??:?
[2] #7  Foam::regionModels::surfaceFilmModels::thermoSingleLayer::correctThermoFields() at ??:?
[0] #8  Foam::regionModels::surfaceFilmModels::thermoSingleLayer::thermoSingleLayer(Foam::word const&, Foam::fvMesh const&, Foam::dimensioned<Foam::Vector<double> > const&, Foam::word const&, bool) at ??:?
[1] #8  Foam::regionModels::surfaceFilmModels::thermoSingleLayer::thermoSingleLayer(Foam::word const&, Foam::fvMesh const&, Foam::dimensioned<Foam::Vector<double> > const&, Foam::word const&, bool) at ??:?
[3] #8  Foam::regionModels::surfaceFilmModels::thermoSingleLayer::thermoSingleLayer(Foam::word const&, Foam::fvMesh const&, Foam::dimensioned<Foam::Vector<double> > const&, Foam::word const&, bool) at ??:?
[2] #8  Foam::regionModels::surfaceFilmModels::thermoSingleLayer::thermoSingleLayer(Foam::word const&, Foam::fvMesh const&, Foam::dimensioned<Foam::Vector<double> > const&, Foam::word const&, bool) at ??:?
[1] #9  Foam::regionModels::surfaceFilmModel::addmeshConstructorToTable<Foam::regionModels::surfaceFilmModels::thermoSingleLayer>::New(Foam::word const&, Foam::fvMesh const&, Foam::dimensioned<Foam::Vector<double> > const&, Foam::word const&) at ??:?
[0] #9  Foam::regionModels::surfaceFilmModel::addmeshConstructorToTable<Foam::regionModels::surfaceFilmModels::thermoSingleLayer>::New(Foam::word const&, Foam::fvMesh const&, Foam::dimensioned<Foam::Vector<double> > const&, Foam::word const&) at ??:?
[3] #9  Foam::regionModels::surfaceFilmModel::addmeshConstructorToTable<Foam::regionModels::surfaceFilmModels::thermoSingleLayer>::New(Foam::word const&, Foam::fvMesh const&, Foam::dimensioned<Foam::Vector<double> > const&, Foam::word const&) at ??:?
[2] #9  Foam::regionModels::surfaceFilmModel::addmeshConstructorToTable<Foam::regionModels::surfaceFilmModels::thermoSingleLayer>::New(Foam::word const&, Foam::fvMesh const&, Foam::dimensioned<Foam::Vector<double> > const&, Foam::word const&) at ??:?
 at ??:?
[1] #10  Foam::regionModels::surfaceFilmModel::New(Foam::fvMesh const&, Foam::dimensioned<Foam::Vector<double> > const&, Foam::word const&)[0] #10  Foam::regionModels::surfaceFilmModel::New(Foam::fvMesh const&, Foam::dimensioned<Foam::Vector<double> > const&, Foam::word const&) at ??:?
[3] #10  Foam::regionModels::surfaceFilmModel::New(Foam::fvMesh const&, Foam::dimensioned<Foam::Vector<double> > const&, Foam::word const&) at ??:?
[0] #11   at ??:?
[1] #11   at ??:?
[2] #10  Foam::regionModels::surfaceFilmModel::New(Foam::fvMesh const&, Foam::dimensioned<Foam::Vector<double> > const&, Foam::word const&)? at ??:?
[3] #11  ? at ??:?
[2] #11   in "/home/edo20/OpenFOAM/edo20-8/platforms/linux64GccDPInt32Opt/bin/sprayFilmFoam"
[0] #12  __libc_start_main in "/home/edo20/OpenFOAM/edo20-8/platforms/linux64GccDPInt32Opt/bin/sprayFilmFoam"
[1] #12  __libc_start_main?? in "/lib/x86_64-linux-gnu/libc.so.6"
[0] #13   in "/lib/x86_64-linux-gnu/libc.so.6"
[1] #13   in "/home/edo20/OpenFOAM/edo20-8/platforms/linux64GccDPInt32Opt/bin/sprayFilmFoam"
[3] #12  __libc_start_main in "/home/edo20/OpenFOAM/edo20-8/platforms/linux64GccD?PInt32Opt/bin/sprayFilmFoam"
[2] #12  __libc_start_main in "/lib/x86_64-linux-gnu/libc.so.6"
[3] #13  ?? in "/lib/x86_64-linux-gnu/libc.so.6"
[2] #13   in "/home/edo20/OpenFOAM/edo20-8/platforms/linux64GccDPInt32Opt/bin/sprayFilmFoam"
[edo20-HP-Pavilion-Notebook:328427] *** Process received signal ***
[edo20-HP-Pavilion-Notebook:328427] Signal: Floating point exception (8)
[edo20-HP-Pavilion-Notebook:328427] Signal code:  (-6)
[edo20-HP-Pavilion-Notebook:328427] Failing at address: 0x3e8000502eb
[edo20-HP-Pavilion-Notebook:328427] [ 0] /lib/x86_64-linux-gnu/libc.so.6(+0x46210)[0x7efea5c41210]
[edo20-HP-Pavilion-Notebook:328427] [ 1] /lib/x86_64-linux-gnu/libc.so.6(gsignal+0xcb)[0x7efea5c4118b]
[edo20-HP-Pavilion-Notebook:328427] [ 2] /lib/x86_64-linux-gnu/libc.so.6(+0x46210)[0x7efea5c41210]
[edo20-HP-Pavilion-Notebook:328427] [ 3] /lib/x86_64-linux-gnu/libm.so.6(+0x7e3e0)[0x7efea5e883e0]
[edo20-HP-Pavilion-Notebook:328427] [ 4] /lib/x86_64-linux-gnu/libm.so.6(powf64+0x18)[0x7efea5e4d208]
[edo20-HP-Pavilion-Notebook:328427] [ 5] /home/edo20/OpenFOAM/OpenFOAM-8/platforms/linux64GccDPInt32Opt/lib/libthermophysicalProperties.so(_ZNK4Foam5C7H163rhoEdd+0x35)[0x7efead1e20d5]
[edo20-HP-Pavilion-Notebook:328427] [ 6]  in "/home/edo20/OpenFOAM/edo20-8/platforms/linux64Gcc/home/edo20/OpenFOAM/OpenFOAM-8/platforms/linux64GccDPInt32Opt/lib/libsurfaceFilmModels.so(_ZNK4Foam12regionModels17surfaceFilmModels16liquidFilmThermo3rhoEv+0x31d)[0x7efea948264d]
[edo20-HP-Pavilion-Notebook:328427] [ 7] DPInt32Opt/bin/sprayFilmFoam"
[edo20-HP-Pavilion-Notebook:328426] *** Process received signal ***
[edo20-HP-Pavilion-Notebook:328426] Signal: Floating point exception (8)
[edo20-HP-Pavilion-Notebook:328426] Signal code:  (-6)
[edo20-HP-Pavilion-Notebook:328426] Failing at address: 0x3e8000502ea
/home/edo20/OpenFOAM/OpenFOAM-8/platforms/linux64GccDPInt32Opt/lib/libsurfaceFilmModels.so(_ZN4Foam12regionModels17surfaceFilmModels17thermoSingleLayer19correctThermoFieldsEv+0x3e)[0x7efea9436b7e]
[edo20-HP-Pavilion-Notebook:328427] [ 8] [edo20-HP-Pavilion-Notebook:328426] [ 0] /home/edo20/OpenFOAM/OpenFOAM-8/platforms/linux64GccDPInt32Opt/lib/libsurfaceFilmModels.so(_ZN4Foam12regionModels17surfaceFilmModels17thermoSingleLayerC1ERKNS_4wordERKNS_6fvMeshERKNS_11dimensionedINS_6VectorIdEEEES5_b+0x146f)[0x7efea943c6cf]
[edo20-HP-Pavilion-Notebook:328427] [ 9] /lib/x86_64-linux-gnu/libc.so.6(+0x46210)[0x7f8b13ae4210]
[edo20-HP-Pavilion-Notebook:328426] [ 1] /lib/x86_64-linux-gnu/libc.so.6(gsignal+0xcb)[0x7f8b13ae418b]
[edo20-HP-Pavilion-Notebook:328426] [ 2] /home/edo20/OpenFOAM/OpenFOAM-8/platforms/linux64GccDPInt32Opt/lib/libsurfaceFilmModels.so(_ZN4Foam12regionModels16surfaceFilmModel25addmeshConstructorToTableINS0_17surfaceFilmModels17thermoSingleLayerEE3NewERKNS_4wordERKNS_6fvMeshERKNS_11dimensionedINS_6VectorIdEEEES8_+0x48)[0x7efea944a558]
[edo20-HP-Pavilion-Notebook:328427] [10] /lib/x86_64-linux-gnu/libc.so.6(+0x46210)[0x7f8b13ae4210]
[edo20-HP-Pavilion-Notebook:328426] [ 3] /home/edo20/OpenFOAM/OpenFOAM-8/platforms/linux64GccDPInt32Opt/lib/libsurfaceFilmModels.so(_ZN4Foam12regionModels16surfaceFilmModel3NewERKNS_6fvMeshERKNS_11dimensionedINS_6VectorIdEEEERKNS_4wordE+0x823)[0x7efea9394fd3]
[edo20-HP-Pavilion-Notebook:328427] [11] /lib/x86_64-linux-gnu/libm.so.6(+0x7e3e0)[0x7f8b13d2b3e0]
[edo20-HP-Pavilion-Notebook:328426] [ 4] sprayFilmFoam(+0x4fc90)[0x558cbae4cc90]
[edo20-HP-Pavilion-Notebook:328427] [12] /lib/x86_64-linux-gnu/libm.so.6(powf64+0x18)[0x7f8b13cf0208]
[edo20-HP-Pavilion-Notebook:328426] [ 5] /lib/x86_64-linux-gnu/libc.so.6(__libc_start_main+0xf3)[0x7efea5c220b3]
[edo20-HP-Pavilion-Notebook:328427] [13] /home/edo20/OpenFOAM/OpenFOAM-8/platforms/linux64GccDPInt32Opt/lib/libthermophysicalProperties.so(_ZNK4Foam5C7H163rhoEdd+0x35)[0x7f8b1b0850d5]
[edo20-HP-Pavilion-Notebook:328426] [ 6] sprayFilmFoam(+0x5618e)[0x558cbae5318e]
[edo20-HP-Pavilion-Notebook:328427] *** End of error message ***
/home/edo20/OpenFOAM/OpenFOAM-8/platforms/linux64GccDPInt32Opt/lib/libsurfaceFilmModels.so(_ZNK4Foam12regionModels17surfaceFilmModels16liquidFilmThermo3rhoEv+0x31d)[0x7f8b1732564d]
[edo20-HP-Pavilion-Notebook:328426] [ 7] /home/edo20/OpenFOAM/OpenFOAM-8/platforms/linux64GccDPInt32Opt/lib/libsurfaceFilmModels.so(_ZN4Foam12regionModels17surfaceFilmModels17thermoSingleLayer19correctThermoFieldsEv+0x3e)[0x7f8b172d9b7e]
[edo20-HP-Pavilion-Notebook:328426] [ 8] /home/edo20/OpenFOAM/OpenFOAM-8/platforms/linux64GccDPInt32Opt/lib/libsurfaceFilmModels.so(_ZN4Foam12regionModels17surfaceFilmModels17thermoSingleLayerC1ERKNS_4wordERKNS_6fvMeshERKNS_11dimensionedINS_6VectorIdEEEES5_b+0x146f)[0x7f8b172df6cf]
[edo20-HP-Pavilion-Notebook:328426] [ 9] /home/edo20/OpenFOAM/OpenFOAM-8/platforms/linux64GccDPInt32Opt/lib/libsurfaceFilmModels.so(_ZN4Foam12regionModels16surfaceFilmModel25addmeshConstructorToTableINS0_17surfaceFilmModels17thermoSingleLayerEE3NewERKNS_4wordERKNS_6fvMeshERKNS_11dimensionedINS_6VectorIdEEEES8_+0x48)[0x7f8b172ed558]
[edo20-HP-Pavilion-Notebook:328426] [10] /home/edo20/OpenFOAM/OpenFOAM-8/platforms/linux64GccDPInt32Opt/lib/libsurfaceFilmModels.so(_ZN4Foam12regionModels16surfaceFilmModel3NewERKNS_6fvMeshERKNS_11dimensionedINS_6VectorIdEEEERKNS_4wordE+0x823)[0x7f8b17237fd3]
[edo20-HP-Pavilion-Notebook:328426] [11] sprayFilmFoam(+0x4fc90)[0x556333a16c90]
[edo20-HP-Pavilion-Notebook:328426] [12] /lib/x86_64-linux-gnu/libc.so.6(__libc_start_main+0xf3)[0x7f8b13ac50b3]
[edo20-HP-Pavilion-Notebook:328426] [13] sprayFilmFoam(+0x5618e)[0x556333a1d18e]
[edo20-HP-Pavilion-Notebook:328426] *** End of error message ***
? in "/home/edo20/OpenFOAM/edo20-8/platforms/linux64GccDPInt32Opt/bin/sprayFilmFoam"
[edo20-HP-Pavilion-Notebook:328429] *** Process received signal ***
[edo20-HP-Pavilion-Notebook:328429] Signal: Floating point exception (8)
[edo20-HP-Pavilion-Notebook:328429] Signal code:  (-6)
[edo20-HP-Pavilion-Notebook:328429] Failing at address: 0x3e8000502ed
[edo20-HP-Pavilion-Notebook:328429] [ 0] /lib/x86_64-linux-gnu/libc.so.6(+0x46210)[0x7f450eaaf210]
[edo20-HP-Pavilion-Notebook:328429] [ 1] /lib/x86_64-linux-gnu/libc.so.6(gsignal+0xcb)[0x7f450eaaf18b]
[edo20-HP-Pavilion-Notebook:328429] [ 2] /lib/x86_64-linux-gnu/libc.so.6(+0x46210)[0x7f450eaaf210]
[edo20-HP-Pavilion-Notebook:328429] [ 3] /lib/x86_64-linux-gnu/libm.so.6(+0x7e3e0)[0x7f450ecf63e0]
[edo20-HP-Pavilion-Notebook:328429] [ 4] /lib/x86_64-linux-gnu/libm.so.6(powf64+0x18)[0x7f450ecbb208]
[edo20-HP-Pavilion-Notebook:328429] [ 5] /home/edo20/OpenFOAM/OpenFOAM-8/platforms/linux64GccDPInt32Opt/lib/libthermophysicalProperties.so(_ZNK4Foam5C7H163rhoEdd+0x35)[0x7f45160500d5]
[edo20-HP-Pavilion-Notebook:328429] [ 6] /home/edo20/OpenFOAM/OpenFOAM-8/platforms/linux64GccDPInt32Opt/lib/libsurfaceFilmModels.so(_ZNK4Foam12regionModels17surfaceFilmModels16liquidFilmThermo3rhoEv+0x31d)[0x7f45122f064d]
[edo20-HP-Pavilion-Notebook:328429] [ 7] /home/edo20/OpenFOAM/OpenFOAM-8/platforms/linux64GccDPInt32Opt/lib/libsurfaceFilmModels.so(_ZN4Foam12regionModels17surfaceFilmModels17thermoSingleLayer19correctThermoFieldsEv+0x3e)[0x7f45122a4b7e]
[edo20-HP-Pavilion-Notebook:328429] [ 8] /home/edo20/OpenFOAM/OpenFOAM-8/platforms/linux64GccDPInt32Opt/lib/libsurfaceFilmModels.so(_ZN4Foam12regionModels17surfaceFilmModels17thermoSingleLayerC1ERKNS_4wordERKNS_6fvMeshERKNS_11dimensionedINS_6VectorIdEEEES5_b+0x146f)[0x7f45122aa6cf]
[edo20-HP-Pavilion-Notebook:328429] [ 9] /home/edo20/OpenFOAM/OpenFOAM-8/platforms/linux64GccDPInt32Opt/lib/libsurfaceFilmModels.so(_ZN4Foam12regionModels16surfaceFilmModel25addmeshConstructorToTableINS0_17surfaceFilmModels17thermoSingleLayerEE3NewERKNS_4wordERKNS_6fvMeshERKNS_11dimensionedINS_6VectorIdEEEES8_+0x48)[0x7f45122b8558]
[edo20-HP-Pavilion-Notebook:328429] [10] /home/edo20/OpenFOAM/OpenFOAM-8/platforms/linux64GccDPInt32Opt/lib/libsurfaceFilmModels.so(_ZN4Foam12regionModels16surfaceFilmModel3NewERKNS_6fvMeshERKNS_11dimensionedINS_6VectorIdEEEERKNS_4wordE+0x823)[0x7f4512202fd3]
[edo20-HP-Pavilion-Notebook:328429] [11] sprayFilmFoam(+0x4fc90)[0x55edc24fcc90]
[edo20-HP-Pavilion-Notebook:328429] [12] /lib/x86_64-linux-gnu/libc.so.6(__libc_start_main+0xf3)[0x7f450ea900b3]
[edo20-HP-Pavilion-Notebook:328429] [13] sprayFilmFoam(+0x5618e)[0x55edc250318e]
[edo20-HP-Pavilion-Notebook:328429] *** End of error message ***
 in "/home/edo20/OpenFOAM/edo20-8/platforms/linux64GccDPInt32Opt/bin/sprayFilmFoam"
[edo20-HP-Pavilion-Notebook:328428] *** Process received signal ***
[edo20-HP-Pavilion-Notebook:328428] Signal: Floating point exception (8)
[edo20-HP-Pavilion-Notebook:328428] Signal code:  (-6)
[edo20-HP-Pavilion-Notebook:328428] Failing at address: 0x3e8000502ec
[edo20-HP-Pavilion-Notebook:328428] [ 0] /lib/x86_64-linux-gnu/libc.so.6(+0x46210)[0x7f870e5d6210]
[edo20-HP-Pavilion-Notebook:328428] [ 1] /lib/x86_64-linux-gnu/libc.so.6(gsignal+0xcb)[0x7f870e5d618b]
[edo20-HP-Pavilion-Notebook:328428] [ 2] /lib/x86_64-linux-gnu/libc.so.6(+0x46210)[0x7f870e5d6210]
[edo20-HP-Pavilion-Notebook:328428] [ 3] /lib/x86_64-linux-gnu/libm.so.6(+0x7e3e0)[0x7f870e81d3e0]
[edo20-HP-Pavilion-Notebook:328428] [ 4] /lib/x86_64-linux-gnu/libm.so.6(powf64+0x18)[0x7f870e7e2208]
[edo20-HP-Pavilion-Notebook:328428] [ 5] /home/edo20/OpenFOAM/OpenFOAM-8/platforms/linux64GccDPInt32Opt/lib/libthermophysicalProperties.so(_ZNK4Foam5C7H163rhoEdd+0x35)[0x7f8715b770d5]
[edo20-HP-Pavilion-Notebook:328428] [ 6] /home/edo20/OpenFOAM/OpenFOAM-8/platforms/linux64GccDPInt32Opt/lib/libsurfaceFilmModels.so(_ZNK4Foam12regionModels17surfaceFilmModels16liquidFilmThermo3rhoEv+0x31d)[0x7f8711e1764d]
[edo20-HP-Pavilion-Notebook:328428] [ 7] /home/edo20/OpenFOAM/OpenFOAM-8/platforms/linux64GccDPInt32Opt/lib/libsurfaceFilmModels.so(_ZN4Foam12regionModels17surfaceFilmModels17thermoSingleLayer19correctThermoFieldsEv+0x3e)[0x7f8711dcbb7e]
[edo20-HP-Pavilion-Notebook:328428] [ 8] /home/edo20/OpenFOAM/OpenFOAM-8/platforms/linux64GccDPInt32Opt/lib/libsurfaceFilmModels.so(_ZN4Foam12regionModels17surfaceFilmModels17thermoSingleLayerC1ERKNS_4wordERKNS_6fvMeshERKNS_11dimensionedINS_6VectorIdEEEES5_b+0x146f)[0x7f8711dd16cf]
[edo20-HP-Pavilion-Notebook:328428] [ 9] /home/edo20/OpenFOAM/OpenFOAM-8/platforms/linux64GccDPInt32Opt/lib/libsurfaceFilmModels.so(_ZN4Foam12regionModels16surfaceFilmModel25addmeshConstructorToTableINS0_17surfaceFilmModels17thermoSingleLayerEE3NewERKNS_4wordERKNS_6fvMeshERKNS_11dimensionedINS_6VectorIdEEEES8_+0x48)[0x7f8711ddf558]
[edo20-HP-Pavilion-Notebook:328428] [10] /home/edo20/OpenFOAM/OpenFOAM-8/platforms/linux64GccDPInt32Opt/lib/libsurfaceFilmModels.so(_ZN4Foam12regionModels16surfaceFilmModel3NewERKNS_6fvMeshERKNS_11dimensionedINS_6VectorIdEEEERKNS_4wordE+0x823)[0x7f8711d29fd3]
[edo20-HP-Pavilion-Notebook:328428] [11] sprayFilmFoam(+0x4fc90)[0x55c57a225c90]
[edo20-HP-Pavilion-Notebook:328428] [12] /lib/x86_64-linux-gnu/libc.so.6(__libc_start_main+0xf3)[0x7f870e5b70b3]
[edo20-HP-Pavilion-Notebook:328428] [13] sprayFilmFoam(+0x5618e)[0x55c57a22c18e]
[edo20-HP-Pavilion-Notebook:328428] *** End of error message ***
--------------------------------------------------------------------------
Primary job  terminated normally, but 1 process returned
a non-zero exit code. Per user-direction, the job has been aborted.
--------------------------------------------------------------------------
--------------------------------------------------------------------------
mpirun noticed that process rank 3 with PID 0 on node edo20-HP-Pavilion-Notebook exited on signal 8 (Floating point exception).
--------------------------------------------------------------------------
