Invalid MIT-MAGIC-COOKIE-1 key/*---------------------------------------------------------------------------*\
  =========                 |
  \\      /  F ield         | OpenFOAM: The Open Source CFD Toolbox
   \\    /   O peration     | Website:  https://openfoam.org
    \\  /    A nd           | Version:  8
     \\/     M anipulation  |
\*---------------------------------------------------------------------------*/
Build  : 8
Exec   : sprayFilmFoam -parallel
Date   : Dec 29 2020
Time   : 10:41:05
Host   : "edo20-HP-Pavilion-Notebook"
PID    : 12720
I/O    : uncollated
Case   : /home/edo20/Piscaglia/Shared_docker_folder/Shared_CTTP/testEdo/3D/combustor3D-wf
nProcs : 4
Slaves : 
3
(
"edo20-HP-Pavilion-Notebook.12721"
"edo20-HP-Pavilion-Notebook.12722"
"edo20-HP-Pavilion-Notebook.12723"
)

Pstream initialized with:
    floatTransfer      : 0
    nProcsSimpleSum    : 0
    commsType          : nonBlocking
    polling iterations : 0
sigFpe : Enabling floating point exception trapping (FOAM_SIGFPE).
fileModificationChecking : Monitoring run-time modified files using timeStampMaster (fileModificationSkew 10)
allowSystemOperations : Allowing user-supplied system call operations

// * * * * * * * * * * * * * * * * * * * * * * * * * * * * * * * * * * * * * //
Create time

Create mesh for time = 0


PIMPLE: No convergence criteria found


PIMPLE: Corrector convergence criteria found
        p: tolerance 0.0001, relTol 0
        U: tolerance 1e-05, relTol 0
        Calculations will do 30 corrections if the convergence criteria are not met


PIMPLE: Operating solver in transient mode with 30 outer correctors



Reading g
Reading thermophysical properties

Selecting thermodynamics package 
{
    type            hePsiThermo;
    mixture         multiComponentMixture;
    transport       sutherland;
    thermo          janaf;
    energy          sensibleEnthalpy;
    equationOfState perfectGas;
    specie          specie;
}

[0] 
[0] 
[0] --> FOAM FATAL ERROR: 
[0] cannot find file "/home/edo20/Piscaglia/Shared_docker_folder/Shared_CTTP/testEdo/3D/combustor3D-wf/processor0/0/T"
[0] 
[0]     From function virtual Foam::autoPtr<Foam::ISstream> Foam::fileOperations::uncollatedFileOperation::readStream(Foam::regIOobject&, const Foam::fileName&, const Foam::word&, bool) const
[0]     in file global/fileOperations/uncollatedFileOperation/uncollatedFileOperation.C at line 538.
[0] 
FOAM parallel run exiting
[0] 
[1] 
[1] 
[1] --> FOAM FATAL ERROR: 
[1] cannot find file "/home/edo20/Piscaglia/Shared_docker_folder/Shared_CTTP/testEdo/3D/combustor3D-wf/processor1/0/T"
[1] 
[1]     From function virtual Foam::autoPtr<Foam::ISstream> Foam::fileOperations::uncollatedFileOperation::readStream(Foam::regIOobject&, const Foam::fileName&, const Foam::word&, bool) const
[1]     in file global/fileOperations/uncollatedFileOperation/uncollatedFileOperation.C at line 538.
[1] 
FOAM parallel run exiting
[1] 
[2] 
[2] 
[2] --> FOAM FATAL ERROR: 
[2] cannot find file "/home/edo20/Piscaglia/Shared_docker_folder/Shared_CTTP/testEdo/3D/combustor3D-wf/processor2/0/T"
[2] 
[2]     From function virtual Foam::autoPtr<Foam::ISstream> Foam::fileOperations::uncollatedFileOperation::readStream(Foam::regIOobject&, const Foam::fileName&, const Foam::word&, bool) const
[2]     in file global/fileOperations/uncollatedFileOperation/uncollatedFileOperation.C at line 538.
[2] 
FOAM parallel run exiting
[2] 
--------------------------------------------------------------------------
MPI_ABORT was invoked on rank 0 in communicator MPI COMMUNICATOR 3 SPLIT FROM 0
with errorcode 1.

NOTE: invoking MPI_ABORT causes Open MPI to kill all MPI processes.
You may or may not see output from other processes, depending on
exactly when Open MPI kills them.
--------------------------------------------------------------------------
[3] 
[3] 
[3] --> FOAM FATAL ERROR: 
[3] cannot find file "/home/edo20/Piscaglia/Shared_docker_folder/Shared_CTTP/testEdo/3D/combustor3D-wf/processor3/0/T"
[3] 
[3]     From function virtual Foam::autoPtr<Foam::ISstream> Foam::fileOperations::uncollatedFileOperation::readStream(Foam::regIOobject&, const Foam::fileName&, const Foam::word&, bool) const
[3]     in file global/fileOperations/uncollatedFileOperation/uncollatedFileOperation.C at line 538.
[3] 
FOAM parallel run exiting
[3] 
[edo20-HP-Pavilion-Notebook:12714] PMIX ERROR: UNREACHABLE in file ../../../src/server/pmix_server.c at line 2193
[edo20-HP-Pavilion-Notebook:12714] PMIX ERROR: UNREACHABLE in file ../../../src/server/pmix_server.c at line 2193
[edo20-HP-Pavilion-Notebook:12714] PMIX ERROR: UNREACHABLE in file ../../../src/server/pmix_server.c at line 2193
[edo20-HP-Pavilion-Notebook:12714] 3 more processes have sent help message help-mpi-api.txt / mpi-abort
[edo20-HP-Pavilion-Notebook:12714] Set MCA parameter "orte_base_help_aggregate" to 0 to see all help / error messages
