/*---------------------------------------------------------------------------*\
  =========                 |
  \\      /  F ield         | OpenFOAM: The Open Source CFD Toolbox
   \\    /   O peration     | Website:  https://openfoam.org
    \\  /    A nd           | Version:  8
     \\/     M anipulation  |
\*---------------------------------------------------------------------------*/
Build  : 8
Exec   : topoSet
Date   : Dec 29 2020
Time   : 10:40:50
Host   : "edo20-HP-Pavilion-Notebook"
PID    : 12673
I/O    : uncollated
Case   : /home/edo20/Piscaglia/Shared_docker_folder/Shared_CTTP/testEdo/3D/combustor3D-wf
nProcs : 1
sigFpe : Enabling floating point exception trapping (FOAM_SIGFPE).
fileModificationChecking : Monitoring run-time modified files using timeStampMaster (fileModificationSkew 10)
allowSystemOperations : Allowing user-supplied system call operations

// * * * * * * * * * * * * * * * * * * * * * * * * * * * * * * * * * * * * * //
Create time

Create polyMesh for time = 0

Reading topoSetDict

Time = 0
    mesh not changed.
Created faceSet wallFilmFaceSet
    Applying source patchToFace
    Adding all faces of patch wall ...
    Found matching patch outerWalls with 5760 faces.
    Found matching patch splitterFront with 16100 faces.
    Found matching patch splitterRight with 1802 faces.
    Found matching patch splitterRear with 17614 faces.
    Found matching patch splitterLeft with 1802 faces.
    Found matching patch splitterBottom with 5162 faces.
    Found matching patch splitterTop with 5162 faces.
    faceSet wallFilmFaceSet now size 53402
Created faceZoneSet wallFilmFaces
    Applying source setToFaceZone
    Adding all faces from faceSet wallFilmFaceSet ...
    faceZoneSet wallFilmFaces now size 53402
End

