/*---------------------------------------------------------------------------*\
  =========                 |
  \\      /  F ield         | OpenFOAM: The Open Source CFD Toolbox
   \\    /   O peration     | Website:  https://openfoam.org
    \\  /    A nd           | Version:  8
     \\/     M anipulation  |
\*---------------------------------------------------------------------------*/
Build  : 8
Exec   : surfaceTransformPoints -scale (1e-3 1e-3 1e-3) constant/triSurface/combustor_mm.stl constant/triSurface/combustor.stl
Date   : Nov 02 2020
Time   : 22:48:48
Host   : "edo20-HP-Pavilion-Notebook"
PID    : 12078
I/O    : uncollated
Case   : /home/edo20/Piscaglia/Shared_docker_folder/Shared_CTTP/Lab_original/Lab01-snappyHexMesh/combustorMesh
nProcs : 1
sigFpe : Enabling floating point exception trapping (FOAM_SIGFPE).
fileModificationChecking : Monitoring run-time modified files using timeStampMaster (fileModificationSkew 10)
allowSystemOperations : Allowing user-supplied system call operations

// * * * * * * * * * * * * * * * * * * * * * * * * * * * * * * * * * * * * * //
Reading surf from "constant/triSurface/combustor_mm.stl" ...
Writing surf to "constant/triSurface/combustor.stl" ...
Scaling points by (0.001 0.001 0.001)
End

