/*---------------------------------------------------------------------------*\
  =========                 |
  \\      /  F ield         | OpenFOAM: The Open Source CFD Toolbox
   \\    /   O peration     | Website:  https://openfoam.org
    \\  /    A nd           | Version:  8
     \\/     M anipulation  |
\*---------------------------------------------------------------------------*/
Build  : 8
Exec   : surfaceFeatures
Date   : Nov 02 2020
Time   : 22:48:48
Host   : "edo20-HP-Pavilion-Notebook"
PID    : 12080
I/O    : uncollated
Case   : /home/edo20/Piscaglia/Shared_docker_folder/Shared_CTTP/Lab_original/Lab01-snappyHexMesh/combustorMesh
nProcs : 1
sigFpe : Enabling floating point exception trapping (FOAM_SIGFPE).
fileModificationChecking : Monitoring run-time modified files using timeStampMaster (fileModificationSkew 10)
allowSystemOperations : Allowing user-supplied system call operations

// * * * * * * * * * * * * * * * * * * * * * * * * * * * * * * * * * * * * * //
Create time

Reading surfaceFeaturesDict



--> FOAM FATAL IO ERROR: 
keyword surfaces is undefined in dictionary "/home/edo20/Piscaglia/Shared_docker_folder/Shared_CTTP/Lab_original/Lab01-snappyHexMesh/combustorMesh/system/surfaceFeaturesDict/combustor.stl"

file: /home/edo20/Piscaglia/Shared_docker_folder/Shared_CTTP/Lab_original/Lab01-snappyHexMesh/combustorMesh/system/surfaceFeaturesDict/combustor.stl from line 20 to line 37.

    From function const Foam::entry& Foam::dictionary::lookupEntry(const Foam::word&, bool, bool) const
    in file db/dictionary/dictionary.C at line 799.

FOAM exiting

