/*---------------------------------------------------------------------------*\
  =========                 |
  \\      /  F ield         | OpenFOAM: The Open Source CFD Toolbox
   \\    /   O peration     | Website:  https://openfoam.org
    \\  /    A nd           | Version:  8
     \\/     M anipulation  |
\*---------------------------------------------------------------------------*/
Build  : 8
Exec   : foamToVTK
Date   : Dec 23 2020
Time   : 09:34:55
Host   : "edo20-HP-Pavilion-Notebook"
PID    : 8081
I/O    : uncollated
Case   : /home/edo20/Piscaglia/Shared_docker_folder/Shared_CTTP/testEdo/Labs/Lab0506/combustor2D-wf
nProcs : 1
sigFpe : Enabling floating point exception trapping (FOAM_SIGFPE).
fileModificationChecking : Monitoring run-time modified files using timeStampMaster (fileModificationSkew 10)
allowSystemOperations : Allowing user-supplied system call operations

// * * * * * * * * * * * * * * * * * * * * * * * * * * * * * * * * * * * * * //
Create time

Create mesh for time = 0

Deleting old VTK files in "/home/edo20/Piscaglia/Shared_docker_folder/Shared_CTTP/testEdo/Labs/Lab0506/combustor2D-wf/VTK"

At time: 0.01 detected cloud directory : "sprayCloudTracks"
At time: 0.01 detected cloud directory : "sprayCloud"
Time: 0
    volScalarFields            : alphat nut N2 O2 p T Ydefault k epsilon
    volVectorFields            : U

    Internal  : "/home/edo20/Piscaglia/Shared_docker_folder/Shared_CTTP/testEdo/Labs/Lab0506/combustor2D-wf/VTK/combustor2D-wf_0.vtk"
    Original cells:15677 points:31956   Additional cells:0  additional points:0

    Patch     : "/home/edo20/Piscaglia/Shared_docker_folder/Shared_CTTP/testEdo/Labs/Lab0506/combustor2D-wf/VTK/inlet/inlet_0.vtk"
    Patch     : "/home/edo20/Piscaglia/Shared_docker_folder/Shared_CTTP/testEdo/Labs/Lab0506/combustor2D-wf/VTK/outlet/outlet_0.vtk"
    Patch     : "/home/edo20/Piscaglia/Shared_docker_folder/Shared_CTTP/testEdo/Labs/Lab0506/combustor2D-wf/VTK/splitter/splitter_0.vtk"
    Patch     : "/home/edo20/Piscaglia/Shared_docker_folder/Shared_CTTP/testEdo/Labs/Lab0506/combustor2D-wf/VTK/fuel_inlet/fuel_inlet_0.vtk"
    Patch     : "/home/edo20/Piscaglia/Shared_docker_folder/Shared_CTTP/testEdo/Labs/Lab0506/combustor2D-wf/VTK/back/back_0.vtk"
    Patch     : "/home/edo20/Piscaglia/Shared_docker_folder/Shared_CTTP/testEdo/Labs/Lab0506/combustor2D-wf/VTK/frontAndBack/frontAndBack_0.vtk"
    Patch     : "/home/edo20/Piscaglia/Shared_docker_folder/Shared_CTTP/testEdo/Labs/Lab0506/combustor2D-wf/VTK/region0_to_wallFilmRegion_wallFilmFaces/region0_to_wallFilmRegion_wallFilmFaces_0.vtk"
    FaceZone  : "/home/edo20/Piscaglia/Shared_docker_folder/Shared_CTTP/testEdo/Labs/Lab0506/combustor2D-wf/VTK/wallFilmFaces/wallFilmFaces_0.vtk"
    Lagrangian: "/home/edo20/Piscaglia/Shared_docker_folder/Shared_CTTP/testEdo/Labs/Lab0506/combustor2D-wf/VTK/lagrangian/sprayCloudTracks/sprayCloudTracks_0.vtk"
    Lagrangian: "/home/edo20/Piscaglia/Shared_docker_folder/Shared_CTTP/testEdo/Labs/Lab0506/combustor2D-wf/VTK/lagrangian/sprayCloud/sprayCloud_0.vtk"
Time: 0.01
    volScalarField::Internal   : sprayCloud:hsTrans sprayCloud:UCoeff sprayCloud:rhoTrans_CO2 sprayCloud:hsCoeff sprayCloud:rhoTrans_H2O sprayCloud:rhoTrans_N2 sprayCloud:rhoTrans_C7H16 sprayCloud:rhoTrans_O2
    volVectorField::Internal   : sprayCloud:UTrans
    volScalarFields            : C7H16 Ma sprayCloudTheta rho CO2 k H2O alphat nut N2 O2 p T epsilon yPlus
    volVectorFields            : U

    Internal  : "/home/edo20/Piscaglia/Shared_docker_folder/Shared_CTTP/testEdo/Labs/Lab0506/combustor2D-wf/VTK/combustor2D-wf_453.vtk"
    Patch     : "/home/edo20/Piscaglia/Shared_docker_folder/Shared_CTTP/testEdo/Labs/Lab0506/combustor2D-wf/VTK/inlet/inlet_453.vtk"
    Patch     : "/home/edo20/Piscaglia/Shared_docker_folder/Shared_CTTP/testEdo/Labs/Lab0506/combustor2D-wf/VTK/outlet/outlet_453.vtk"
    Patch     : "/home/edo20/Piscaglia/Shared_docker_folder/Shared_CTTP/testEdo/Labs/Lab0506/combustor2D-wf/VTK/splitter/splitter_453.vtk"
    Patch     : "/home/edo20/Piscaglia/Shared_docker_folder/Shared_CTTP/testEdo/Labs/Lab0506/combustor2D-wf/VTK/fuel_inlet/fuel_inlet_453.vtk"
    Patch     : "/home/edo20/Piscaglia/Shared_docker_folder/Shared_CTTP/testEdo/Labs/Lab0506/combustor2D-wf/VTK/back/back_453.vtk"
    Patch     : "/home/edo20/Piscaglia/Shared_docker_folder/Shared_CTTP/testEdo/Labs/Lab0506/combustor2D-wf/VTK/frontAndBack/frontAndBack_453.vtk"
    Patch     : "/home/edo20/Piscaglia/Shared_docker_folder/Shared_CTTP/testEdo/Labs/Lab0506/combustor2D-wf/VTK/region0_to_wallFilmRegion_wallFilmFaces/region0_to_wallFilmRegion_wallFilmFaces_453.vtk"
    surfScalarFields  : phi
    FaceZone  : "/home/edo20/Piscaglia/Shared_docker_folder/Shared_CTTP/testEdo/Labs/Lab0506/combustor2D-wf/VTK/wallFilmFaces/wallFilmFaces_453.vtk"
    Lagrangian: "/home/edo20/Piscaglia/Shared_docker_folder/Shared_CTTP/testEdo/Labs/Lab0506/combustor2D-wf/VTK/lagrangian/sprayCloudTracks/sprayCloudTracks_453.vtk"
        labels            : active origId typeId origProcId
        scalars           : d tc yDot injector KHindex rho d0 sigma Cp ms user tMom dTarget nParticle age mass0 T tTurb mu YC7H16(l) y liquidCore
        vectors           : UTurb U position0
        spherical tensors :
        symm tensors      :
        tensors           :
    Lagrangian: "/home/edo20/Piscaglia/Shared_docker_folder/Shared_CTTP/testEdo/Labs/Lab0506/combustor2D-wf/VTK/lagrangian/sprayCloud/sprayCloud_453.vtk"
        labels            : active origId typeId origProcId
        scalars           : d tc yDot injector KHindex rho d0 sigma Cp ms user tMom dTarget nParticle age mass0 T tTurb mu YC7H16(l) y liquidCore
        vectors           : UTurb U position0
        spherical tensors :
        symm tensors      :
        tensors           :
Time: 0.02
    volScalarField::Internal   : sprayCloud:hsTrans sprayCloud:UCoeff sprayCloud:rhoTrans_CO2 sprayCloud:hsCoeff sprayCloud:rhoTrans_H2O sprayCloud:rhoTrans_N2 sprayCloud:rhoTrans_C7H16 sprayCloud:rhoTrans_O2
    volVectorField::Internal   : sprayCloud:UTrans
    volScalarFields            : C7H16 Ma sprayCloudTheta rho CO2 k H2O alphat nut N2 O2 p T epsilon yPlus
    volVectorFields            : U

    Internal  : "/home/edo20/Piscaglia/Shared_docker_folder/Shared_CTTP/testEdo/Labs/Lab0506/combustor2D-wf/VTK/combustor2D-wf_909.vtk"
    Patch     : "/home/edo20/Piscaglia/Shared_docker_folder/Shared_CTTP/testEdo/Labs/Lab0506/combustor2D-wf/VTK/inlet/inlet_909.vtk"
    Patch     : "/home/edo20/Piscaglia/Shared_docker_folder/Shared_CTTP/testEdo/Labs/Lab0506/combustor2D-wf/VTK/outlet/outlet_909.vtk"
    Patch     : "/home/edo20/Piscaglia/Shared_docker_folder/Shared_CTTP/testEdo/Labs/Lab0506/combustor2D-wf/VTK/splitter/splitter_909.vtk"
    Patch     : "/home/edo20/Piscaglia/Shared_docker_folder/Shared_CTTP/testEdo/Labs/Lab0506/combustor2D-wf/VTK/fuel_inlet/fuel_inlet_909.vtk"
    Patch     : "/home/edo20/Piscaglia/Shared_docker_folder/Shared_CTTP/testEdo/Labs/Lab0506/combustor2D-wf/VTK/back/back_909.vtk"
    Patch     : "/home/edo20/Piscaglia/Shared_docker_folder/Shared_CTTP/testEdo/Labs/Lab0506/combustor2D-wf/VTK/frontAndBack/frontAndBack_909.vtk"
    Patch     : "/home/edo20/Piscaglia/Shared_docker_folder/Shared_CTTP/testEdo/Labs/Lab0506/combustor2D-wf/VTK/region0_to_wallFilmRegion_wallFilmFaces/region0_to_wallFilmRegion_wallFilmFaces_909.vtk"
    surfScalarFields  : phi
    FaceZone  : "/home/edo20/Piscaglia/Shared_docker_folder/Shared_CTTP/testEdo/Labs/Lab0506/combustor2D-wf/VTK/wallFilmFaces/wallFilmFaces_909.vtk"
    Lagrangian: "/home/edo20/Piscaglia/Shared_docker_folder/Shared_CTTP/testEdo/Labs/Lab0506/combustor2D-wf/VTK/lagrangian/sprayCloudTracks/sprayCloudTracks_909.vtk"
        labels            : active origId typeId origProcId
        scalars           : d tc yDot injector KHindex rho d0 sigma Cp ms user tMom dTarget nParticle age mass0 T tTurb mu YC7H16(l) y liquidCore
        vectors           : UTurb U position0
        spherical tensors :
        symm tensors      :
        tensors           :
    Lagrangian: "/home/edo20/Piscaglia/Shared_docker_folder/Shared_CTTP/testEdo/Labs/Lab0506/combustor2D-wf/VTK/lagrangian/sprayCloud/sprayCloud_909.vtk"
        labels            : active origId typeId origProcId
        scalars           : d tc yDot injector KHindex rho d0 sigma Cp ms user tMom dTarget nParticle age mass0 T tTurb mu YC7H16(l) y liquidCore
        vectors           : UTurb U position0
        spherical tensors :
        symm tensors      :
        tensors           :
Time: 0.03
    volScalarField::Internal   : sprayCloud:hsTrans sprayCloud:UCoeff sprayCloud:rhoTrans_CO2 sprayCloud:hsCoeff sprayCloud:rhoTrans_H2O sprayCloud:rhoTrans_N2 sprayCloud:rhoTrans_C7H16 sprayCloud:rhoTrans_O2
    volVectorField::Internal   : sprayCloud:UTrans
    volScalarFields            : C7H16 Ma sprayCloudTheta rho CO2 k H2O alphat nut N2 O2 p T epsilon yPlus
    volVectorFields            : U

    Internal  : "/home/edo20/Piscaglia/Shared_docker_folder/Shared_CTTP/testEdo/Labs/Lab0506/combustor2D-wf/VTK/combustor2D-wf_1397.vtk"
    Patch     : "/home/edo20/Piscaglia/Shared_docker_folder/Shared_CTTP/testEdo/Labs/Lab0506/combustor2D-wf/VTK/inlet/inlet_1397.vtk"
    Patch     : "/home/edo20/Piscaglia/Shared_docker_folder/Shared_CTTP/testEdo/Labs/Lab0506/combustor2D-wf/VTK/outlet/outlet_1397.vtk"
    Patch     : "/home/edo20/Piscaglia/Shared_docker_folder/Shared_CTTP/testEdo/Labs/Lab0506/combustor2D-wf/VTK/splitter/splitter_1397.vtk"
    Patch     : "/home/edo20/Piscaglia/Shared_docker_folder/Shared_CTTP/testEdo/Labs/Lab0506/combustor2D-wf/VTK/fuel_inlet/fuel_inlet_1397.vtk"
    Patch     : "/home/edo20/Piscaglia/Shared_docker_folder/Shared_CTTP/testEdo/Labs/Lab0506/combustor2D-wf/VTK/back/back_1397.vtk"
    Patch     : "/home/edo20/Piscaglia/Shared_docker_folder/Shared_CTTP/testEdo/Labs/Lab0506/combustor2D-wf/VTK/frontAndBack/frontAndBack_1397.vtk"
    Patch     : "/home/edo20/Piscaglia/Shared_docker_folder/Shared_CTTP/testEdo/Labs/Lab0506/combustor2D-wf/VTK/region0_to_wallFilmRegion_wallFilmFaces/region0_to_wallFilmRegion_wallFilmFaces_1397.vtk"
    surfScalarFields  : phi
    FaceZone  : "/home/edo20/Piscaglia/Shared_docker_folder/Shared_CTTP/testEdo/Labs/Lab0506/combustor2D-wf/VTK/wallFilmFaces/wallFilmFaces_1397.vtk"
    Lagrangian: "/home/edo20/Piscaglia/Shared_docker_folder/Shared_CTTP/testEdo/Labs/Lab0506/combustor2D-wf/VTK/lagrangian/sprayCloudTracks/sprayCloudTracks_1397.vtk"
        labels            : active origId typeId origProcId
        scalars           : d tc yDot injector KHindex rho d0 sigma Cp ms user tMom dTarget nParticle age mass0 T tTurb mu YC7H16(l) y liquidCore
        vectors           : UTurb U position0
        spherical tensors :
        symm tensors      :
        tensors           :
    Lagrangian: "/home/edo20/Piscaglia/Shared_docker_folder/Shared_CTTP/testEdo/Labs/Lab0506/combustor2D-wf/VTK/lagrangian/sprayCloud/sprayCloud_1397.vtk"
        labels            : active origId typeId origProcId
        scalars           : d tc yDot injector KHindex rho d0 sigma Cp ms user tMom dTarget nParticle age mass0 T tTurb mu YC7H16(l) y liquidCore
        vectors           : UTurb U position0
        spherical tensors :
        symm tensors      :
        tensors           :
Time: 0.04
    volScalarField::Internal   : sprayCloud:hsTrans sprayCloud:UCoeff sprayCloud:rhoTrans_CO2 sprayCloud:hsCoeff sprayCloud:rhoTrans_H2O sprayCloud:rhoTrans_N2 sprayCloud:rhoTrans_C7H16 sprayCloud:rhoTrans_O2
    volVectorField::Internal   : sprayCloud:UTrans
    volScalarFields            : C7H16 Ma sprayCloudTheta rho CO2 k H2O alphat nut N2 O2 p T epsilon yPlus
    volVectorFields            : U

    Internal  : "/home/edo20/Piscaglia/Shared_docker_folder/Shared_CTTP/testEdo/Labs/Lab0506/combustor2D-wf/VTK/combustor2D-wf_2125.vtk"
    Patch     : "/home/edo20/Piscaglia/Shared_docker_folder/Shared_CTTP/testEdo/Labs/Lab0506/combustor2D-wf/VTK/inlet/inlet_2125.vtk"
    Patch     : "/home/edo20/Piscaglia/Shared_docker_folder/Shared_CTTP/testEdo/Labs/Lab0506/combustor2D-wf/VTK/outlet/outlet_2125.vtk"
    Patch     : "/home/edo20/Piscaglia/Shared_docker_folder/Shared_CTTP/testEdo/Labs/Lab0506/combustor2D-wf/VTK/splitter/splitter_2125.vtk"
    Patch     : "/home/edo20/Piscaglia/Shared_docker_folder/Shared_CTTP/testEdo/Labs/Lab0506/combustor2D-wf/VTK/fuel_inlet/fuel_inlet_2125.vtk"
    Patch     : "/home/edo20/Piscaglia/Shared_docker_folder/Shared_CTTP/testEdo/Labs/Lab0506/combustor2D-wf/VTK/back/back_2125.vtk"
    Patch     : "/home/edo20/Piscaglia/Shared_docker_folder/Shared_CTTP/testEdo/Labs/Lab0506/combustor2D-wf/VTK/frontAndBack/frontAndBack_2125.vtk"
    Patch     : "/home/edo20/Piscaglia/Shared_docker_folder/Shared_CTTP/testEdo/Labs/Lab0506/combustor2D-wf/VTK/region0_to_wallFilmRegion_wallFilmFaces/region0_to_wallFilmRegion_wallFilmFaces_2125.vtk"
    surfScalarFields  : phi
    FaceZone  : "/home/edo20/Piscaglia/Shared_docker_folder/Shared_CTTP/testEdo/Labs/Lab0506/combustor2D-wf/VTK/wallFilmFaces/wallFilmFaces_2125.vtk"
    Lagrangian: "/home/edo20/Piscaglia/Shared_docker_folder/Shared_CTTP/testEdo/Labs/Lab0506/combustor2D-wf/VTK/lagrangian/sprayCloudTracks/sprayCloudTracks_2125.vtk"
        labels            : active origId typeId origProcId
        scalars           : d tc yDot injector KHindex rho d0 sigma Cp ms user tMom dTarget nParticle age mass0 T tTurb mu YC7H16(l) y liquidCore
        vectors           : UTurb U position0
        spherical tensors :
        symm tensors      :
        tensors           :
    Lagrangian: "/home/edo20/Piscaglia/Shared_docker_folder/Shared_CTTP/testEdo/Labs/Lab0506/combustor2D-wf/VTK/lagrangian/sprayCloud/sprayCloud_2125.vtk"
        labels            : active origId typeId origProcId
        scalars           : d tc yDot injector KHindex rho d0 sigma Cp ms user tMom dTarget nParticle age mass0 T tTurb mu YC7H16(l) y liquidCore
        vectors           : UTurb U position0
        spherical tensors :
        symm tensors      :
        tensors           :
Time: 0.05
    volScalarField::Internal   : sprayCloud:hsTrans sprayCloud:UCoeff sprayCloud:rhoTrans_CO2 sprayCloud:hsCoeff sprayCloud:rhoTrans_H2O sprayCloud:rhoTrans_N2 sprayCloud:rhoTrans_C7H16 sprayCloud:rhoTrans_O2
    volVectorField::Internal   : sprayCloud:UTrans
    volScalarFields            : C7H16 Ma sprayCloudTheta rho CO2 k H2O alphat nut N2 O2 p T epsilon yPlus
    volVectorFields            : U

    Internal  : "/home/edo20/Piscaglia/Shared_docker_folder/Shared_CTTP/testEdo/Labs/Lab0506/combustor2D-wf/VTK/combustor2D-wf_2964.vtk"
    Patch     : "/home/edo20/Piscaglia/Shared_docker_folder/Shared_CTTP/testEdo/Labs/Lab0506/combustor2D-wf/VTK/inlet/inlet_2964.vtk"
    Patch     : "/home/edo20/Piscaglia/Shared_docker_folder/Shared_CTTP/testEdo/Labs/Lab0506/combustor2D-wf/VTK/outlet/outlet_2964.vtk"
    Patch     : "/home/edo20/Piscaglia/Shared_docker_folder/Shared_CTTP/testEdo/Labs/Lab0506/combustor2D-wf/VTK/splitter/splitter_2964.vtk"
    Patch     : "/home/edo20/Piscaglia/Shared_docker_folder/Shared_CTTP/testEdo/Labs/Lab0506/combustor2D-wf/VTK/fuel_inlet/fuel_inlet_2964.vtk"
    Patch     : "/home/edo20/Piscaglia/Shared_docker_folder/Shared_CTTP/testEdo/Labs/Lab0506/combustor2D-wf/VTK/back/back_2964.vtk"
    Patch     : "/home/edo20/Piscaglia/Shared_docker_folder/Shared_CTTP/testEdo/Labs/Lab0506/combustor2D-wf/VTK/frontAndBack/frontAndBack_2964.vtk"
    Patch     : "/home/edo20/Piscaglia/Shared_docker_folder/Shared_CTTP/testEdo/Labs/Lab0506/combustor2D-wf/VTK/region0_to_wallFilmRegion_wallFilmFaces/region0_to_wallFilmRegion_wallFilmFaces_2964.vtk"
    surfScalarFields  : phi
    FaceZone  : "/home/edo20/Piscaglia/Shared_docker_folder/Shared_CTTP/testEdo/Labs/Lab0506/combustor2D-wf/VTK/wallFilmFaces/wallFilmFaces_2964.vtk"
    Lagrangian: "/home/edo20/Piscaglia/Shared_docker_folder/Shared_CTTP/testEdo/Labs/Lab0506/combustor2D-wf/VTK/lagrangian/sprayCloudTracks/sprayCloudTracks_2964.vtk"
        labels            : active origId typeId origProcId
        scalars           : d tc yDot injector KHindex rho d0 sigma Cp ms user tMom dTarget nParticle age mass0 T tTurb mu YC7H16(l) y liquidCore
        vectors           : UTurb U position0
        spherical tensors :
        symm tensors      :
        tensors           :
    Lagrangian: "/home/edo20/Piscaglia/Shared_docker_folder/Shared_CTTP/testEdo/Labs/Lab0506/combustor2D-wf/VTK/lagrangian/sprayCloud/sprayCloud_2964.vtk"
        labels            : active origId typeId origProcId
        scalars           : d tc yDot injector KHindex rho d0 sigma Cp ms user tMom dTarget nParticle age mass0 T tTurb mu YC7H16(l) y liquidCore
        vectors           : UTurb U position0
        spherical tensors :
        symm tensors      :
        tensors           :
Time: 0.06
    volScalarField::Internal   : sprayCloud:hsTrans sprayCloud:UCoeff sprayCloud:rhoTrans_CO2 sprayCloud:hsCoeff sprayCloud:rhoTrans_H2O sprayCloud:rhoTrans_N2 sprayCloud:rhoTrans_C7H16 sprayCloud:rhoTrans_O2
    volVectorField::Internal   : sprayCloud:UTrans
    volScalarFields            : C7H16 Ma sprayCloudTheta rho CO2 k H2O alphat nut N2 O2 p T epsilon yPlus
    volVectorFields            : U

    Internal  : "/home/edo20/Piscaglia/Shared_docker_folder/Shared_CTTP/testEdo/Labs/Lab0506/combustor2D-wf/VTK/combustor2D-wf_3833.vtk"
    Patch     : "/home/edo20/Piscaglia/Shared_docker_folder/Shared_CTTP/testEdo/Labs/Lab0506/combustor2D-wf/VTK/inlet/inlet_3833.vtk"
    Patch     : "/home/edo20/Piscaglia/Shared_docker_folder/Shared_CTTP/testEdo/Labs/Lab0506/combustor2D-wf/VTK/outlet/outlet_3833.vtk"
    Patch     : "/home/edo20/Piscaglia/Shared_docker_folder/Shared_CTTP/testEdo/Labs/Lab0506/combustor2D-wf/VTK/splitter/splitter_3833.vtk"
    Patch     : "/home/edo20/Piscaglia/Shared_docker_folder/Shared_CTTP/testEdo/Labs/Lab0506/combustor2D-wf/VTK/fuel_inlet/fuel_inlet_3833.vtk"
    Patch     : "/home/edo20/Piscaglia/Shared_docker_folder/Shared_CTTP/testEdo/Labs/Lab0506/combustor2D-wf/VTK/back/back_3833.vtk"
    Patch     : "/home/edo20/Piscaglia/Shared_docker_folder/Shared_CTTP/testEdo/Labs/Lab0506/combustor2D-wf/VTK/frontAndBack/frontAndBack_3833.vtk"
    Patch     : "/home/edo20/Piscaglia/Shared_docker_folder/Shared_CTTP/testEdo/Labs/Lab0506/combustor2D-wf/VTK/region0_to_wallFilmRegion_wallFilmFaces/region0_to_wallFilmRegion_wallFilmFaces_3833.vtk"
    surfScalarFields  : phi
    FaceZone  : "/home/edo20/Piscaglia/Shared_docker_folder/Shared_CTTP/testEdo/Labs/Lab0506/combustor2D-wf/VTK/wallFilmFaces/wallFilmFaces_3833.vtk"
    Lagrangian: "/home/edo20/Piscaglia/Shared_docker_folder/Shared_CTTP/testEdo/Labs/Lab0506/combustor2D-wf/VTK/lagrangian/sprayCloudTracks/sprayCloudTracks_3833.vtk"
        labels            : active origId typeId origProcId
        scalars           : d tc yDot injector KHindex rho d0 sigma Cp ms user tMom dTarget nParticle age mass0 T tTurb mu YC7H16(l) y liquidCore
        vectors           : UTurb U position0
        spherical tensors :
        symm tensors      :
        tensors           :
    Lagrangian: "/home/edo20/Piscaglia/Shared_docker_folder/Shared_CTTP/testEdo/Labs/Lab0506/combustor2D-wf/VTK/lagrangian/sprayCloud/sprayCloud_3833.vtk"
        labels            : active origId typeId origProcId
        scalars           : d tc yDot injector KHindex rho d0 sigma Cp ms user tMom dTarget nParticle age mass0 T tTurb mu YC7H16(l) y liquidCore
        vectors           : UTurb U position0
        spherical tensors :
        symm tensors      :
        tensors           :
Time: 0.07
    volScalarField::Internal   : sprayCloud:hsTrans sprayCloud:UCoeff sprayCloud:rhoTrans_CO2 sprayCloud:hsCoeff sprayCloud:rhoTrans_H2O sprayCloud:rhoTrans_N2 sprayCloud:rhoTrans_C7H16 sprayCloud:rhoTrans_O2
    volVectorField::Internal   : sprayCloud:UTrans
    volScalarFields            : C7H16 Ma sprayCloudTheta rho CO2 k H2O alphat nut N2 O2 p T epsilon yPlus
    volVectorFields            : U

    Internal  : "/home/edo20/Piscaglia/Shared_docker_folder/Shared_CTTP/testEdo/Labs/Lab0506/combustor2D-wf/VTK/combustor2D-wf_4690.vtk"
    Patch     : "/home/edo20/Piscaglia/Shared_docker_folder/Shared_CTTP/testEdo/Labs/Lab0506/combustor2D-wf/VTK/inlet/inlet_4690.vtk"
    Patch     : "/home/edo20/Piscaglia/Shared_docker_folder/Shared_CTTP/testEdo/Labs/Lab0506/combustor2D-wf/VTK/outlet/outlet_4690.vtk"
    Patch     : "/home/edo20/Piscaglia/Shared_docker_folder/Shared_CTTP/testEdo/Labs/Lab0506/combustor2D-wf/VTK/splitter/splitter_4690.vtk"
    Patch     : "/home/edo20/Piscaglia/Shared_docker_folder/Shared_CTTP/testEdo/Labs/Lab0506/combustor2D-wf/VTK/fuel_inlet/fuel_inlet_4690.vtk"
    Patch     : "/home/edo20/Piscaglia/Shared_docker_folder/Shared_CTTP/testEdo/Labs/Lab0506/combustor2D-wf/VTK/back/back_4690.vtk"
    Patch     : "/home/edo20/Piscaglia/Shared_docker_folder/Shared_CTTP/testEdo/Labs/Lab0506/combustor2D-wf/VTK/frontAndBack/frontAndBack_4690.vtk"
    Patch     : "/home/edo20/Piscaglia/Shared_docker_folder/Shared_CTTP/testEdo/Labs/Lab0506/combustor2D-wf/VTK/region0_to_wallFilmRegion_wallFilmFaces/region0_to_wallFilmRegion_wallFilmFaces_4690.vtk"
    surfScalarFields  : phi
    FaceZone  : "/home/edo20/Piscaglia/Shared_docker_folder/Shared_CTTP/testEdo/Labs/Lab0506/combustor2D-wf/VTK/wallFilmFaces/wallFilmFaces_4690.vtk"
    Lagrangian: "/home/edo20/Piscaglia/Shared_docker_folder/Shared_CTTP/testEdo/Labs/Lab0506/combustor2D-wf/VTK/lagrangian/sprayCloudTracks/sprayCloudTracks_4690.vtk"
        labels            : active origId typeId origProcId
        scalars           : d tc yDot injector KHindex rho d0 sigma Cp ms user tMom dTarget nParticle age mass0 T tTurb mu YC7H16(l) y liquidCore
        vectors           : UTurb U position0
        spherical tensors :
        symm tensors      :
        tensors           :
    Lagrangian: "/home/edo20/Piscaglia/Shared_docker_folder/Shared_CTTP/testEdo/Labs/Lab0506/combustor2D-wf/VTK/lagrangian/sprayCloud/sprayCloud_4690.vtk"
        labels            : active origId typeId origProcId
        scalars           : d tc yDot injector KHindex rho d0 sigma Cp ms user tMom dTarget nParticle age mass0 T tTurb mu YC7H16(l) y liquidCore
        vectors           : UTurb U position0
        spherical tensors :
        symm tensors      :
        tensors           :
Time: 0.08
    volScalarField::Internal   : sprayCloud:hsTrans sprayCloud:UCoeff sprayCloud:rhoTrans_CO2 sprayCloud:hsCoeff sprayCloud:rhoTrans_H2O sprayCloud:rhoTrans_N2 sprayCloud:rhoTrans_C7H16 sprayCloud:rhoTrans_O2
    volVectorField::Internal   : sprayCloud:UTrans
    volScalarFields            : C7H16 Ma sprayCloudTheta rho CO2 k H2O alphat nut N2 O2 p T epsilon yPlus
    volVectorFields            : U

    Internal  : "/home/edo20/Piscaglia/Shared_docker_folder/Shared_CTTP/testEdo/Labs/Lab0506/combustor2D-wf/VTK/combustor2D-wf_5511.vtk"
    Patch     : "/home/edo20/Piscaglia/Shared_docker_folder/Shared_CTTP/testEdo/Labs/Lab0506/combustor2D-wf/VTK/inlet/inlet_5511.vtk"
    Patch     : "/home/edo20/Piscaglia/Shared_docker_folder/Shared_CTTP/testEdo/Labs/Lab0506/combustor2D-wf/VTK/outlet/outlet_5511.vtk"
    Patch     : "/home/edo20/Piscaglia/Shared_docker_folder/Shared_CTTP/testEdo/Labs/Lab0506/combustor2D-wf/VTK/splitter/splitter_5511.vtk"
    Patch     : "/home/edo20/Piscaglia/Shared_docker_folder/Shared_CTTP/testEdo/Labs/Lab0506/combustor2D-wf/VTK/fuel_inlet/fuel_inlet_5511.vtk"
    Patch     : "/home/edo20/Piscaglia/Shared_docker_folder/Shared_CTTP/testEdo/Labs/Lab0506/combustor2D-wf/VTK/back/back_5511.vtk"
    Patch     : "/home/edo20/Piscaglia/Shared_docker_folder/Shared_CTTP/testEdo/Labs/Lab0506/combustor2D-wf/VTK/frontAndBack/frontAndBack_5511.vtk"
    Patch     : "/home/edo20/Piscaglia/Shared_docker_folder/Shared_CTTP/testEdo/Labs/Lab0506/combustor2D-wf/VTK/region0_to_wallFilmRegion_wallFilmFaces/region0_to_wallFilmRegion_wallFilmFaces_5511.vtk"
    surfScalarFields  : phi
    FaceZone  : "/home/edo20/Piscaglia/Shared_docker_folder/Shared_CTTP/testEdo/Labs/Lab0506/combustor2D-wf/VTK/wallFilmFaces/wallFilmFaces_5511.vtk"
    Lagrangian: "/home/edo20/Piscaglia/Shared_docker_folder/Shared_CTTP/testEdo/Labs/Lab0506/combustor2D-wf/VTK/lagrangian/sprayCloudTracks/sprayCloudTracks_5511.vtk"
        labels            : active origId typeId origProcId
        scalars           : d tc yDot injector KHindex rho d0 sigma Cp ms user tMom dTarget nParticle age mass0 T tTurb mu YC7H16(l) y liquidCore
        vectors           : UTurb U position0
        spherical tensors :
        symm tensors      :
        tensors           :
    Lagrangian: "/home/edo20/Piscaglia/Shared_docker_folder/Shared_CTTP/testEdo/Labs/Lab0506/combustor2D-wf/VTK/lagrangian/sprayCloud/sprayCloud_5511.vtk"
        labels            : active origId typeId origProcId
        scalars           : d tc yDot injector KHindex rho d0 sigma Cp ms user tMom dTarget nParticle age mass0 T tTurb mu YC7H16(l) y liquidCore
        vectors           : UTurb U position0
        spherical tensors :
        symm tensors      :
        tensors           :
Time: 0.09
    volScalarField::Internal   : sprayCloud:hsTrans sprayCloud:UCoeff sprayCloud:rhoTrans_CO2 sprayCloud:hsCoeff sprayCloud:rhoTrans_H2O sprayCloud:rhoTrans_N2 sprayCloud:rhoTrans_C7H16 sprayCloud:rhoTrans_O2
    volVectorField::Internal   : sprayCloud:UTrans
    volScalarFields            : C7H16 Ma sprayCloudTheta rho CO2 k H2O alphat nut N2 O2 p T epsilon yPlus
    volVectorFields            : U

    Internal  : "/home/edo20/Piscaglia/Shared_docker_folder/Shared_CTTP/testEdo/Labs/Lab0506/combustor2D-wf/VTK/combustor2D-wf_6255.vtk"
    Patch     : "/home/edo20/Piscaglia/Shared_docker_folder/Shared_CTTP/testEdo/Labs/Lab0506/combustor2D-wf/VTK/inlet/inlet_6255.vtk"
    Patch     : "/home/edo20/Piscaglia/Shared_docker_folder/Shared_CTTP/testEdo/Labs/Lab0506/combustor2D-wf/VTK/outlet/outlet_6255.vtk"
    Patch     : "/home/edo20/Piscaglia/Shared_docker_folder/Shared_CTTP/testEdo/Labs/Lab0506/combustor2D-wf/VTK/splitter/splitter_6255.vtk"
    Patch     : "/home/edo20/Piscaglia/Shared_docker_folder/Shared_CTTP/testEdo/Labs/Lab0506/combustor2D-wf/VTK/fuel_inlet/fuel_inlet_6255.vtk"
    Patch     : "/home/edo20/Piscaglia/Shared_docker_folder/Shared_CTTP/testEdo/Labs/Lab0506/combustor2D-wf/VTK/back/back_6255.vtk"
    Patch     : "/home/edo20/Piscaglia/Shared_docker_folder/Shared_CTTP/testEdo/Labs/Lab0506/combustor2D-wf/VTK/frontAndBack/frontAndBack_6255.vtk"
    Patch     : "/home/edo20/Piscaglia/Shared_docker_folder/Shared_CTTP/testEdo/Labs/Lab0506/combustor2D-wf/VTK/region0_to_wallFilmRegion_wallFilmFaces/region0_to_wallFilmRegion_wallFilmFaces_6255.vtk"
    surfScalarFields  : phi
    FaceZone  : "/home/edo20/Piscaglia/Shared_docker_folder/Shared_CTTP/testEdo/Labs/Lab0506/combustor2D-wf/VTK/wallFilmFaces/wallFilmFaces_6255.vtk"
    Lagrangian: "/home/edo20/Piscaglia/Shared_docker_folder/Shared_CTTP/testEdo/Labs/Lab0506/combustor2D-wf/VTK/lagrangian/sprayCloudTracks/sprayCloudTracks_6255.vtk"
        labels            : active origId typeId origProcId
        scalars           : d tc yDot injector KHindex rho d0 sigma Cp ms user tMom dTarget nParticle age mass0 T tTurb mu YC7H16(l) y liquidCore
        vectors           : UTurb U position0
        spherical tensors :
        symm tensors      :
        tensors           :
    Lagrangian: "/home/edo20/Piscaglia/Shared_docker_folder/Shared_CTTP/testEdo/Labs/Lab0506/combustor2D-wf/VTK/lagrangian/sprayCloud/sprayCloud_6255.vtk"
        labels            : active origId typeId origProcId
        scalars           : d tc yDot injector KHindex rho d0 sigma Cp ms user tMom dTarget nParticle age mass0 T tTurb mu YC7H16(l) y liquidCore
        vectors           : UTurb U position0
        spherical tensors :
        symm tensors      :
        tensors           :
Time: 0.1
    volScalarField::Internal   : sprayCloud:hsTrans sprayCloud:UCoeff sprayCloud:rhoTrans_CO2 sprayCloud:hsCoeff sprayCloud:rhoTrans_H2O sprayCloud:rhoTrans_N2 sprayCloud:rhoTrans_C7H16 sprayCloud:rhoTrans_O2
    volVectorField::Internal   : sprayCloud:UTrans
    volScalarFields            : C7H16 Ma sprayCloudTheta rho CO2 k H2O alphat nut N2 O2 p T epsilon yPlus
    volVectorFields            : U

    Internal  : "/home/edo20/Piscaglia/Shared_docker_folder/Shared_CTTP/testEdo/Labs/Lab0506/combustor2D-wf/VTK/combustor2D-wf_6911.vtk"
    Patch     : "/home/edo20/Piscaglia/Shared_docker_folder/Shared_CTTP/testEdo/Labs/Lab0506/combustor2D-wf/VTK/inlet/inlet_6911.vtk"
    Patch     : "/home/edo20/Piscaglia/Shared_docker_folder/Shared_CTTP/testEdo/Labs/Lab0506/combustor2D-wf/VTK/outlet/outlet_6911.vtk"
    Patch     : "/home/edo20/Piscaglia/Shared_docker_folder/Shared_CTTP/testEdo/Labs/Lab0506/combustor2D-wf/VTK/splitter/splitter_6911.vtk"
    Patch     : "/home/edo20/Piscaglia/Shared_docker_folder/Shared_CTTP/testEdo/Labs/Lab0506/combustor2D-wf/VTK/fuel_inlet/fuel_inlet_6911.vtk"
    Patch     : "/home/edo20/Piscaglia/Shared_docker_folder/Shared_CTTP/testEdo/Labs/Lab0506/combustor2D-wf/VTK/back/back_6911.vtk"
    Patch     : "/home/edo20/Piscaglia/Shared_docker_folder/Shared_CTTP/testEdo/Labs/Lab0506/combustor2D-wf/VTK/frontAndBack/frontAndBack_6911.vtk"
    Patch     : "/home/edo20/Piscaglia/Shared_docker_folder/Shared_CTTP/testEdo/Labs/Lab0506/combustor2D-wf/VTK/region0_to_wallFilmRegion_wallFilmFaces/region0_to_wallFilmRegion_wallFilmFaces_6911.vtk"
    surfScalarFields  : phi
    FaceZone  : "/home/edo20/Piscaglia/Shared_docker_folder/Shared_CTTP/testEdo/Labs/Lab0506/combustor2D-wf/VTK/wallFilmFaces/wallFilmFaces_6911.vtk"
    Lagrangian: "/home/edo20/Piscaglia/Shared_docker_folder/Shared_CTTP/testEdo/Labs/Lab0506/combustor2D-wf/VTK/lagrangian/sprayCloudTracks/sprayCloudTracks_6911.vtk"
        labels            : active origId typeId origProcId
        scalars           : d tc yDot injector KHindex rho d0 sigma Cp ms user tMom dTarget nParticle age mass0 T tTurb mu YC7H16(l) y liquidCore
        vectors           : UTurb U position0
        spherical tensors :
        symm tensors      :
        tensors           :
    Lagrangian: "/home/edo20/Piscaglia/Shared_docker_folder/Shared_CTTP/testEdo/Labs/Lab0506/combustor2D-wf/VTK/lagrangian/sprayCloud/sprayCloud_6911.vtk"
        labels            : active origId typeId origProcId
        scalars           : d tc yDot injector KHindex rho d0 sigma Cp ms user tMom dTarget nParticle age mass0 T tTurb mu YC7H16(l) y liquidCore
        vectors           : UTurb U position0
        spherical tensors :
        symm tensors      :
        tensors           :
End

