/*---------------------------------------------------------------------------*\
  =========                 |
  \\      /  F ield         | OpenFOAM: The Open Source CFD Toolbox
   \\    /   O peration     | Website:  https://openfoam.org
    \\  /    A nd           | Version:  8
     \\/     M anipulation  |
\*---------------------------------------------------------------------------*/
Build  : 8-9b73cf21a682
Exec   : blockMesh
Date   : Oct 27 2020
Time   : 08:53:21
Host   : "1b67f1245282"
PID    : 294
I/O    : uncollated
Case   : /home/student/OpenFOAM/student-8/run/Shared_CTTP/Test_Edo/combustor_mesh
nProcs : 1
sigFpe : Enabling floating point exception trapping (FOAM_SIGFPE).
fileModificationChecking : Monitoring run-time modified files using timeStampMaster (fileModificationSkew 10)
allowSystemOperations : Allowing user-supplied system call operations

// * * * * * * * * * * * * * * * * * * * * * * * * * * * * * * * * * * * * * //
Create time

Deleting polyMesh directory
    "/home/student/OpenFOAM/student-8/run/Shared_CTTP/Test_Edo/combustor_mesh/constant/polyMesh"
Creating block mesh from
    "system/blockMeshDict"
Creating block edges
No non-planar block faces defined
Creating topology blocks
Creating topology patches

Creating block mesh topology

Check topology

	Basic statistics
		Number of internal faces : 0
		Number of boundary faces : 6
		Number of defined boundary faces : 6
		Number of undefined boundary faces : 0
	Checking patch -> block consistency

Creating block offsets
Creating merge list .

Creating polyMesh from blockMesh
Creating patches
Creating cells
Creating points with scale 0.001
    Block 0 cell size :
        i : 0.012
        j : 0.1
        k : 0.03

There are no merge patch pairs edges

Writing polyMesh
----------------
Mesh Information
----------------
  boundingBox: (-0.12 -0.3 -0.12) (0.12 0.5 0.12)
  nPoints: 1701
  nCells: 1280
  nFaces: 4224
  nInternalFaces: 3456
----------------
Patches
----------------
  patch 0 (start: 3456 size: 320) name: frontAndBack
  patch 1 (start: 3776 size: 64) name: inlet
  patch 2 (start: 3840 size: 64) name: outlet
  patch 3 (start: 3904 size: 160) name: lowerWall
  patch 4 (start: 4064 size: 160) name: upperWall

End

