/*---------------------------------------------------------------------------*\
  =========                 |
  \\      /  F ield         | OpenFOAM: The Open Source CFD Toolbox
   \\    /   O peration     | Website:  https://openfoam.org
    \\  /    A nd           | Version:  8
     \\/     M anipulation  |
\*---------------------------------------------------------------------------*/
Build  : 8-9b73cf21a682
Exec   : checkMesh
Date   : Oct 27 2020
Time   : 08:53:21
Host   : "1b67f1245282"
PID    : 303
I/O    : uncollated
Case   : /home/student/OpenFOAM/student-8/run/Shared_CTTP/Test_Edo/combustor_mesh
nProcs : 1
sigFpe : Enabling floating point exception trapping (FOAM_SIGFPE).
fileModificationChecking : Monitoring run-time modified files using timeStampMaster (fileModificationSkew 10)
allowSystemOperations : Allowing user-supplied system call operations

// * * * * * * * * * * * * * * * * * * * * * * * * * * * * * * * * * * * * * //
Create time

Create polyMesh for time = 0

Time = 0

Mesh stats
    points:           1701
    faces:            4224
    internal faces:   3456
    cells:            1280
    faces per cell:   6
    boundary patches: 5
    point zones:      0
    face zones:       0
    cell zones:       0

Overall number of cells of each type:
    hexahedra:     1280
    prisms:        0
    wedges:        0
    pyramids:      0
    tet wedges:    0
    tetrahedra:    0
    polyhedra:     0

Checking topology...
    Boundary definition OK.
    Cell to face addressing OK.
    Point usage OK.
    Upper triangular ordering OK.
    Face vertices OK.
    Number of regions: 1 (OK).

Checking patch topology for multiply connected surfaces...
    Patch               Faces    Points   Surface topology                  
    frontAndBack        320      378      ok (non-closed singly connected)  
    inlet               64       81       ok (non-closed singly connected)  
    outlet              64       81       ok (non-closed singly connected)  
    lowerWall           160      189      ok (non-closed singly connected)  
    upperWall           160      189      ok (non-closed singly connected)  

Checking geometry...
    Overall domain bounding box (-0.12 -0.3 -0.12) (0.12 0.5 0.12)
    Mesh has 3 geometric (non-empty/wedge) directions (1 1 1)
    Mesh has 3 solution (non-empty) directions (1 1 1)
    Boundary openness (2.16055e-17 3.19172e-18 -7.61102e-18) OK.
    Max cell openness = 2.1684e-16 OK.
    Max aspect ratio = 8.33333 OK.
    Minimum face area = 0.00036. Maximum face area = 0.003.  Face area magnitudes OK.
    Min volume = 3.6e-05. Max volume = 3.6e-05.  Total volume = 0.04608.  Cell volumes OK.
    Mesh non-orthogonality Max: 0 average: 0
    Non-orthogonality check OK.
    Face pyramids OK.
    Max skewness = 6.93889e-15 OK.
    Coupled point location match (average 0) OK.

Mesh OK.

End

