/*---------------------------------------------------------------------------*\
  =========                 |
  \\      /  F ield         | OpenFOAM: The Open Source CFD Toolbox
   \\    /   O peration     | Website:  https://openfoam.org
    \\  /    A nd           | Version:  8
     \\/     M anipulation  |
\*---------------------------------------------------------------------------*/
Build  : 8-9b73cf21a682
Exec   : surfaceFeatures -dict system/surfaceFeaturesDict
Date   : Oct 27 2020
Time   : 08:53:21
Host   : "1b67f1245282"
PID    : 298
I/O    : uncollated
Case   : /home/student/OpenFOAM/student-8/run/Shared_CTTP/Test_Edo/combustor_mesh
nProcs : 1
sigFpe : Enabling floating point exception trapping (FOAM_SIGFPE).
fileModificationChecking : Monitoring run-time modified files using timeStampMaster (fileModificationSkew 10)
allowSystemOperations : Allowing user-supplied system call operations

// * * * * * * * * * * * * * * * * * * * * * * * * * * * * * * * * * * * * * //
Create time

Reading surfaceFeaturesDict

Surface            : "combustor_mm.obj"


Feature line extraction is only valid on closed manifold surfaces.


--> FOAM FATAL ERROR: 
Cannot read "/home/student/OpenFOAM/student-8/run/Shared_CTTP/Test_Edo/combustor_mesh/constant/triSurface/combustor_mm.obj"

    From function bool Foam::triSurface::read(const Foam::fileName&, const Foam::word&, bool)
    in file triSurface/triSurface.C at line 304.

FOAM exiting

