/*---------------------------------------------------------------------------*\
  =========                 |
  \\      /  F ield         | OpenFOAM: The Open Source CFD Toolbox
   \\    /   O peration     | Website:  https://openfoam.org
    \\  /    A nd           | Version:  8
     \\/     M anipulation  |
\*---------------------------------------------------------------------------*/
Build  : 8
Exec   : reconstructPar
Date   : Nov 29 2020
Time   : 11:46:01
Host   : "edo20-HP-Pavilion-Notebook"
PID    : 35959
I/O    : uncollated
Case   : /home/edo20/Piscaglia/Shared_docker_folder/Shared_CTTP/testEdo/Labs/Lab02-incompFlows/combustorPimple
nProcs : 1
sigFpe : Enabling floating point exception trapping (FOAM_SIGFPE).
fileModificationChecking : Monitoring run-time modified files using timeStampMaster (fileModificationSkew 10)
allowSystemOperations : Allowing user-supplied system call operations

// * * * * * * * * * * * * * * * * * * * * * * * * * * * * * * * * * * * * * //
Create time



Reconstructing fields for mesh region0

Time = 0.01

Reconstructing FV fields

    Reconstructing volScalarFields

        p
        nut
        k
        epsilon

    Reconstructing volVectorFields

        U

    Reconstructing surfaceScalarFields

        phi

Reconstructing point fields

No point fields

No lagrangian fields

Time = 0.02

Reconstructing FV fields

    Reconstructing volScalarFields

        p
        nut
        k
        epsilon

    Reconstructing volVectorFields

        U

    Reconstructing surfaceScalarFields

        phi

Reconstructing point fields

No point fields

No lagrangian fields

Time = 0.03

Reconstructing FV fields

    Reconstructing volScalarFields

        p
        nut
        k
        epsilon

    Reconstructing volVectorFields

        U

    Reconstructing surfaceScalarFields

        phi

Reconstructing point fields

No point fields

No lagrangian fields

Time = 0.04

Reconstructing FV fields

    Reconstructing volScalarFields

        p
        nut
        k
        epsilon

    Reconstructing volVectorFields

        U

    Reconstructing surfaceScalarFields

        phi

Reconstructing point fields

No point fields

No lagrangian fields

Time = 0.05

Reconstructing FV fields

    Reconstructing volScalarFields

        p
        nut
        k
        epsilon

    Reconstructing volVectorFields

        U

    Reconstructing surfaceScalarFields

        phi

Reconstructing point fields

No point fields

No lagrangian fields

Time = 0.06

Reconstructing FV fields

    Reconstructing volScalarFields

        p
        nut
        k
        epsilon

    Reconstructing volVectorFields

        U

    Reconstructing surfaceScalarFields

        phi

Reconstructing point fields

No point fields

No lagrangian fields

Time = 0.07

Reconstructing FV fields

    Reconstructing volScalarFields

        p
        nut
        k
        epsilon

    Reconstructing volVectorFields

        U

    Reconstructing surfaceScalarFields

        phi

Reconstructing point fields

No point fields

No lagrangian fields

Time = 0.08

Reconstructing FV fields

    Reconstructing volScalarFields

        p
        nut
        k
        epsilon

    Reconstructing volVectorFields

        U

    Reconstructing surfaceScalarFields

        phi

Reconstructing point fields

No point fields

No lagrangian fields

Time = 0.09

Reconstructing FV fields

    Reconstructing volScalarFields

        p
        nut
        k
        epsilon

    Reconstructing volVectorFields

        U

    Reconstructing surfaceScalarFields

        phi

Reconstructing point fields

No point fields

No lagrangian fields

Time = 0.1

Reconstructing FV fields

    Reconstructing volScalarFields

        p
        nut
        k
        epsilon

    Reconstructing volVectorFields

        U

    Reconstructing surfaceScalarFields

        phi

Reconstructing point fields

No point fields

No lagrangian fields

Time = 0.11

Reconstructing FV fields

    Reconstructing volScalarFields

        p
        nut
        k
        epsilon

    Reconstructing volVectorFields

        U

    Reconstructing surfaceScalarFields

        phi

Reconstructing point fields

No point fields

No lagrangian fields

Time = 0.12

Reconstructing FV fields

    Reconstructing volScalarFields

        p
        nut
        k
        epsilon

    Reconstructing volVectorFields

        U

    Reconstructing surfaceScalarFields

        phi

Reconstructing point fields

No point fields

No lagrangian fields

Time = 0.13

Reconstructing FV fields

    Reconstructing volScalarFields

        p
        nut
        k
        epsilon

    Reconstructing volVectorFields

        U

    Reconstructing surfaceScalarFields

        phi

Reconstructing point fields

No point fields

No lagrangian fields

Time = 0.14

Reconstructing FV fields

    Reconstructing volScalarFields

        p
        nut
        k
        epsilon

    Reconstructing volVectorFields

        U

    Reconstructing surfaceScalarFields

        phi

Reconstructing point fields

No point fields

No lagrangian fields

Time = 0.15

Reconstructing FV fields

    Reconstructing volScalarFields

        p
        nut
        k
        epsilon

    Reconstructing volVectorFields

        U

    Reconstructing surfaceScalarFields

        phi

Reconstructing point fields

No point fields

No lagrangian fields

Time = 0.16

Reconstructing FV fields

    Reconstructing volScalarFields

        p
        nut
        k
        epsilon

    Reconstructing volVectorFields

        U

    Reconstructing surfaceScalarFields

        phi

Reconstructing point fields

No point fields

No lagrangian fields

Time = 0.17

Reconstructing FV fields

    Reconstructing volScalarFields

        p
        nut
        k
        epsilon

    Reconstructing volVectorFields

        U

    Reconstructing surfaceScalarFields

        phi

Reconstructing point fields

No point fields

No lagrangian fields

Time = 0.18

Reconstructing FV fields

    Reconstructing volScalarFields

        p
        nut
        k
        epsilon

    Reconstructing volVectorFields

        U

    Reconstructing surfaceScalarFields

        phi

Reconstructing point fields

No point fields

No lagrangian fields

Time = 0.19

Reconstructing FV fields

    Reconstructing volScalarFields

        p
        nut
        k
        epsilon

    Reconstructing volVectorFields

        U

    Reconstructing surfaceScalarFields

        phi

Reconstructing point fields

No point fields

No lagrangian fields

Time = 0.2

Reconstructing FV fields

    Reconstructing volScalarFields

        p
        nut
        k
        epsilon

    Reconstructing volVectorFields

        U

    Reconstructing surfaceScalarFields

        phi

Reconstructing point fields

No point fields

No lagrangian fields

Time = 0.21

Reconstructing FV fields

    Reconstructing volScalarFields

        p
        nut
        k
        epsilon

    Reconstructing volVectorFields

        U

    Reconstructing surfaceScalarFields

        phi

Reconstructing point fields

No point fields

No lagrangian fields

Time = 0.22

Reconstructing FV fields

    Reconstructing volScalarFields

        p
        nut
        k
        epsilon

    Reconstructing volVectorFields

        U

    Reconstructing surfaceScalarFields

        phi

Reconstructing point fields

No point fields

No lagrangian fields

Time = 0.23

Reconstructing FV fields

    Reconstructing volScalarFields

        p
        nut
        k
        epsilon

    Reconstructing volVectorFields

        U

    Reconstructing surfaceScalarFields

        phi

Reconstructing point fields

No point fields

No lagrangian fields

Time = 0.24

Reconstructing FV fields

    Reconstructing volScalarFields

        p
        nut
        k
        epsilon

    Reconstructing volVectorFields

        U

    Reconstructing surfaceScalarFields

        phi

Reconstructing point fields

No point fields

No lagrangian fields

Time = 0.25

Reconstructing FV fields

    Reconstructing volScalarFields

        p
        nut
        k
        epsilon

    Reconstructing volVectorFields

        U

    Reconstructing surfaceScalarFields

        phi

Reconstructing point fields

No point fields

No lagrangian fields

Time = 0.26

Reconstructing FV fields

    Reconstructing volScalarFields

        p
        nut
        k
        epsilon

    Reconstructing volVectorFields

        U

    Reconstructing surfaceScalarFields

        phi

Reconstructing point fields

No point fields

No lagrangian fields

Time = 0.27

Reconstructing FV fields

    Reconstructing volScalarFields

        p
        nut
        k
        epsilon

    Reconstructing volVectorFields

        U

    Reconstructing surfaceScalarFields

        phi

Reconstructing point fields

No point fields

No lagrangian fields

Time = 0.28

Reconstructing FV fields

    Reconstructing volScalarFields

        p
        nut
        k
        epsilon

    Reconstructing volVectorFields

        U

    Reconstructing surfaceScalarFields

        phi

Reconstructing point fields

No point fields

No lagrangian fields

Time = 0.29

Reconstructing FV fields

    Reconstructing volScalarFields

        p
        nut
        k
        epsilon

    Reconstructing volVectorFields

        U

    Reconstructing surfaceScalarFields

        phi

Reconstructing point fields

No point fields

No lagrangian fields

Time = 0.3

Reconstructing FV fields

    Reconstructing volScalarFields

        p
        nut
        k
        epsilon

    Reconstructing volVectorFields

        U

    Reconstructing surfaceScalarFields

        phi

Reconstructing point fields

No point fields

No lagrangian fields

Time = 0.31

Reconstructing FV fields

    Reconstructing volScalarFields

        p
        nut
        k
        epsilon

    Reconstructing volVectorFields

        U

    Reconstructing surfaceScalarFields

        phi

Reconstructing point fields

No point fields

No lagrangian fields

Time = 0.32

Reconstructing FV fields

    Reconstructing volScalarFields

        p
        nut
        k
        epsilon

    Reconstructing volVectorFields

        U

    Reconstructing surfaceScalarFields

        phi

Reconstructing point fields

No point fields

No lagrangian fields

Time = 0.33

Reconstructing FV fields

    Reconstructing volScalarFields

        p
        nut
        k
        epsilon

    Reconstructing volVectorFields

        U

    Reconstructing surfaceScalarFields

        phi

Reconstructing point fields

No point fields

No lagrangian fields

Time = 0.34

Reconstructing FV fields

    Reconstructing volScalarFields

        p
        nut
        k
        epsilon

    Reconstructing volVectorFields

        U

    Reconstructing surfaceScalarFields

        phi

Reconstructing point fields

No point fields

No lagrangian fields

Time = 0.35

Reconstructing FV fields

    Reconstructing volScalarFields

        p
        nut
        k
        epsilon

    Reconstructing volVectorFields

        U

    Reconstructing surfaceScalarFields

        phi

Reconstructing point fields

No point fields

No lagrangian fields

Time = 0.36

Reconstructing FV fields

    Reconstructing volScalarFields

        p
        nut
        k
        epsilon

    Reconstructing volVectorFields

        U

    Reconstructing surfaceScalarFields

        phi

Reconstructing point fields

No point fields

No lagrangian fields

Time = 0.37

Reconstructing FV fields

    Reconstructing volScalarFields

        p
        nut
        k
        epsilon

    Reconstructing volVectorFields

        U

    Reconstructing surfaceScalarFields

        phi

Reconstructing point fields

No point fields

No lagrangian fields

Time = 0.38

Reconstructing FV fields

    Reconstructing volScalarFields

        p
        nut
        k
        epsilon

    Reconstructing volVectorFields

        U

    Reconstructing surfaceScalarFields

        phi

Reconstructing point fields

No point fields

No lagrangian fields

Time = 0.39

Reconstructing FV fields

    Reconstructing volScalarFields

        p
        nut
        k
        epsilon

    Reconstructing volVectorFields

        U

    Reconstructing surfaceScalarFields

        phi

Reconstructing point fields

No point fields

No lagrangian fields

Time = 0.4

Reconstructing FV fields

    Reconstructing volScalarFields

        p
        nut
        k
        epsilon

    Reconstructing volVectorFields

        U

    Reconstructing surfaceScalarFields

        phi

Reconstructing point fields

No point fields

No lagrangian fields

Time = 0.41

Reconstructing FV fields

    Reconstructing volScalarFields

        p
        nut
        k
        epsilon

    Reconstructing volVectorFields

        U

    Reconstructing surfaceScalarFields

        phi

Reconstructing point fields

No point fields

No lagrangian fields

Time = 0.42

Reconstructing FV fields

    Reconstructing volScalarFields

        p
        nut
        k
        epsilon

    Reconstructing volVectorFields

        U

    Reconstructing surfaceScalarFields

        phi

Reconstructing point fields

No point fields

No lagrangian fields

Time = 0.43

Reconstructing FV fields

    Reconstructing volScalarFields

        p
        nut
        k
        epsilon

    Reconstructing volVectorFields

        U

    Reconstructing surfaceScalarFields

        phi

Reconstructing point fields

No point fields

No lagrangian fields

Time = 0.44

Reconstructing FV fields

    Reconstructing volScalarFields

        p
        nut
        k
        epsilon

    Reconstructing volVectorFields

        U

    Reconstructing surfaceScalarFields

        phi

Reconstructing point fields

No point fields

No lagrangian fields

Time = 0.45

Reconstructing FV fields

    Reconstructing volScalarFields

        p
        nut
        k
        epsilon

    Reconstructing volVectorFields

        U

    Reconstructing surfaceScalarFields

        phi

Reconstructing point fields

No point fields

No lagrangian fields

Time = 0.46

Reconstructing FV fields

    Reconstructing volScalarFields

        p
        nut
        k
        epsilon

    Reconstructing volVectorFields

        U

    Reconstructing surfaceScalarFields

        phi

Reconstructing point fields

No point fields

No lagrangian fields

Time = 0.47

Reconstructing FV fields

    Reconstructing volScalarFields

        p
        nut
        k
        epsilon

    Reconstructing volVectorFields

        U

    Reconstructing surfaceScalarFields

        phi

Reconstructing point fields

No point fields

No lagrangian fields

Time = 0.48

Reconstructing FV fields

    Reconstructing volScalarFields

        p
        nut
        k
        epsilon

    Reconstructing volVectorFields

        U

    Reconstructing surfaceScalarFields

        phi

Reconstructing point fields

No point fields

No lagrangian fields

Time = 0.49

Reconstructing FV fields

    Reconstructing volScalarFields

        p
        nut
        k
        epsilon

    Reconstructing volVectorFields

        U

    Reconstructing surfaceScalarFields

        phi

Reconstructing point fields

No point fields

No lagrangian fields

Time = 0.5

Reconstructing FV fields

    Reconstructing volScalarFields

        p
        nut
        k
        epsilon

    Reconstructing volVectorFields

        U

    Reconstructing surfaceScalarFields

        phi

Reconstructing point fields

No point fields

No lagrangian fields


End

