/*---------------------------------------------------------------------------*\
  =========                 |
  \\      /  F ield         | OpenFOAM: The Open Source CFD Toolbox
   \\    /   O peration     | Website:  https://openfoam.org
    \\  /    A nd           | Version:  8
     \\/     M anipulation  |
\*---------------------------------------------------------------------------*/
Build  : 8
Exec   : blockMesh
Date   : Dec 15 2020
Time   : 21:54:31
Host   : "edo20-HP-Pavilion-Notebook"
PID    : 25899
I/O    : uncollated
Case   : /home/edo20/Piscaglia/Shared_CTTP/Assignement/Lab04-compressibleFlows/combustor2D-RPF-lowRe-highT
nProcs : 1
sigFpe : Enabling floating point exception trapping (FOAM_SIGFPE).
fileModificationChecking : Monitoring run-time modified files using timeStampMaster (fileModificationSkew 10)
allowSystemOperations : Allowing user-supplied system call operations

// * * * * * * * * * * * * * * * * * * * * * * * * * * * * * * * * * * * * * //
Create time

Deleting polyMesh directory
    "/home/edo20/Piscaglia/Shared_CTTP/Assignement/Lab04-compressibleFlows/combustor2D-RPF-lowRe-highT/constant/polyMesh"
Creating block mesh from
    "system/blockMeshDict"
Creating block edges
No non-planar block faces defined
Creating topology blocks
Creating topology patches

Creating block mesh topology

Check topology

	Basic statistics
		Number of internal faces : 34
		Number of boundary faces : 76
		Number of defined boundary faces : 76
		Number of undefined boundary faces : 0
	Checking patch -> block consistency

Creating block offsets
Creating merge list .

Creating polyMesh from blockMesh
Creating patches
Creating cells
Creating points with scale 1
    Block 0 cell size :
        i : 0.000669435 .. 0.000869777
        j : 0.0186435 .. 0.00372869
        k : 0.002
    Block 1 cell size :
        i : 0.00139053 .. 0.00137208 0.00139264 .. 0.00137417 0.00139053 .. 0.00137208 0.00139264 .. 0.00137417 
        j : 0.0186435 .. 0.00372869 0.0185667 .. 0.00371335 0.0186435 .. 0.00372869 0.0185667 .. 0.00371335 
        k : 0.002
    Block 2 cell size :
        i : 0.00166667 .. 0.00166667
        j : 0.0167125 .. 0.00334251
        k : 0.002
    Block 3 cell size :
        i : 0.00139053 .. 0.00137208 0.00139264 .. 0.00137417 0.00139053 .. 0.00137208 0.00139264 .. 0.00137417 
        j : 0.0167125 .. 0.00334251 0.0167892 .. 0.00335785 0.0167125 .. 0.00334251 0.0167892 .. 0.00335785 
        k : 0.002
    Block 4 cell size :
        i : 0.000869777 .. 0.000669257
        j : 0.0186435 .. 0.00372869
        k : 0.002
    Block 5 cell size :
        i : 0.000669435 .. 0.000869777
        j : 0.00433262 .. 0.000866523
        k : 0.002
    Block 6 cell size :
        i : 0.00180583 .. 0.00178188 0.00180145 .. 0.00177755 0.00180583 .. 0.00178188 0.00180145 .. 0.00177755 
        j : 0.00433262 .. 0.000866523 0.0043395 .. 0.0008679 0.00433262 .. 0.000866523 0.0043395 .. 0.0008679 
        k : 0.002
    Block 7 cell size :
        i : 0.00166667 .. 0.00166667 0.00165296 .. 0.00165296 0.00166667 .. 0.00166667 0.00165296 
        j : 0.00450592 .. 0.000901184 0.00441178 .. 0.000882356 0.00450592 .. 0.000901184 0.00441178 .. 0.000882356 
        k : 0.002
    Block 8 cell size :
        i : 0.00180583 .. 0.00178188 0.00180145 .. 0.00177755 0.00180583 .. 0.00178188 0.00180145 .. 0.00177755 
        j : 0.00450592 .. 0.000901184 0.00449904 .. 0.000899807 0.00450592 .. 0.000901184 0.00449904 .. 0.000899807 
        k : 0.002
    Block 9 cell size :
        i : 0.000869777 .. 0.000669257
        j : 0.00433262 .. 0.000866523
        k : 0.002
    Block 10 cell size :
        i : 0.000669435 .. 0.000869777
        j : 0.000584868 .. 0.00204704
        k : 0.002
    Block 11 cell size :
        i : 0.0015 .. 0.0015
        j : 0.000584868 .. 0.00204704
        k : 0.002
    Block 12 cell size :
        i : 0.00149386 .. 0.0014854
        j : 0.000584868 .. 0.00204704
        k : 0.002
    Block 13 cell size :
        i : 0.00148674 .. 0.00148674 0.00147636 .. 0.00147636 0.00148674 .. 0.00148674 0.00147636 .. 0.00147636 
        j : 0.000584868 .. 0.00204704 0.000608107 .. 0.00212837 0.000584868 .. 0.00204704 0.000608107 .. 0.00212837 
        k : 0.002
    Block 14 cell size :
        i : 0.00149386 .. 0.0014854
        j : 0.000584868 .. 0.00204704
        k : 0.002
    Block 15 cell size :
        i : 0.0015 .. 0.0015
        j : 0.000584868 .. 0.00204704
        k : 0.002
    Block 16 cell size :
        i : 0.000869777 .. 0.000669257
        j : 0.000584868 .. 0.00204704
        k : 0.002
    Block 17 cell size :
        i : 0.000669435 .. 0.000869777
        j : 0.00300713 .. 0.0150357
        k : 0.002
    Block 18 cell size :
        i : 0.0015 .. 0.0015
        j : 0.00300713 .. 0.0150357
        k : 0.002
    Block 19 cell size :
        i : 0.00149386 .. 0.0014854 0.00149034 .. 0.0014819 0.00149386 .. 0.0014854 0.00149034 .. 0.0014819 
        j : 0.00300713 .. 0.0150357 0.00301307 .. 0.0150653 0.00300713 .. 0.0150357 0.00301307 .. 0.0150653 
        k : 0.002
    Block 20 cell size :
        i : 0.00133333 .. 0.00133333
        j : 0.00312074 .. 0.0156037
        k : 0.002
    Block 21 cell size :
        i : 0.00149386 .. 0.0014854 0.00149034 .. 0.0014819 0.00149386 .. 0.0014854 0.00149034 .. 0.0014819 
        j : 0.00312074 .. 0.0156037 0.0031148 .. 0.015574 0.00312074 .. 0.0156037 0.0031148 .. 0.015574 
        k : 0.002
    Block 22 cell size :
        i : 0.0015 .. 0.0015
        j : 0.00300713 .. 0.0150357
        k : 0.002
    Block 23 cell size :
        i : 0.000869777 .. 0.000669257
        j : 0.00300713 .. 0.0150357
        k : 0.002

Writing polyMesh
----------------
Mesh Information
----------------
  boundingBox: (-0.12 -0.3 -0.001) (0.12 0.5 0.001)
  nPoints: 31956
  nCells: 15677
  nFaces: 63009
  nInternalFaces: 31053
----------------
Patches
----------------
  patch 0 (start: 31053 size: 120) name: inlet
  patch 1 (start: 31173 size: 121) name: outlet
  patch 2 (start: 31294 size: 50) name: splitter
  patch 3 (start: 31344 size: 20) name: fuel_inlet
  patch 4 (start: 31364 size: 31) name: back
  patch 5 (start: 31395 size: 260) name: sides
  patch 6 (start: 31655 size: 31354) name: frontAndBack

End

