/*---------------------------------------------------------------------------*\
  =========                 |
  \\      /  F ield         | OpenFOAM: The Open Source CFD Toolbox
   \\    /   O peration     | Website:  https://openfoam.org
    \\  /    A nd           | Version:  8
     \\/     M anipulation  |
\*---------------------------------------------------------------------------*/
Build  : 8-9b73cf21a682
Exec   : reactingFoam -parallel
Date   : Dec 28 2020
Time   : 17:44:48
Host   : "b183688884af"
PID    : 199
I/O    : uncollated
Case   : /home/student/OpenFOAM/student-8/run/Shared_CTTP/testAme/labs/lab7/assignment4/reactingFoam/initialConditions
nProcs : 4
Slaves : 
3
(
"b183688884af.200"
"b183688884af.201"
"b183688884af.202"
)

Pstream initialized with:
    floatTransfer      : 0
    nProcsSimpleSum    : 0
    commsType          : nonBlocking
    polling iterations : 0
sigFpe : Enabling floating point exception trapping (FOAM_SIGFPE).
fileModificationChecking : Monitoring run-time modified files using timeStampMaster (fileModificationSkew 10)
allowSystemOperations : Allowing user-supplied system call operations

// * * * * * * * * * * * * * * * * * * * * * * * * * * * * * * * * * * * * * //
Create time

Create mesh for time = 0


PIMPLE: No convergence criteria found


PIMPLE: No corrector convergence criteria found
        Calculations will do 25 corrections


PIMPLE: Operating solver in transient mode with 25 outer correctors


Reading thermophysical properties

Selecting thermodynamics package 
{
    type            hePsiThermo;
    mixture         multiComponentMixture;
    transport       sutherland;
    thermo          janaf;
    energy          sensibleEnthalpy;
    equationOfState perfectGas;
    specie          specie;
}

Reading field U

Reading/calculating face flux field phi

Creating turbulence model.

Selecting turbulence model type RAS
Selecting RAS turbulence model kEpsilon
RAS
{
    model           kEpsilon;
    turbulence      on;
    printCoeffs     on;
    Cmu             0.09;
    C1              1.44;
    C2              1.92;
    C3              0;
    sigmak          1;
    sigmaEps        1.3;
}

Creating thermophysical transport model

Selecting thermophysical transport type RAS
Selecting default RAS thermophysical transport model eddyDiffusivity
Creating reaction model

Selecting combustion model PaSR
Selecting chemistry solver 
{
    solver          EulerImplicit;
    method          standard;
}

StandardChemistryModel: Number of species = 5 and reactions = 1
    using integrated reaction rate
Creating field dpdt

Creating field kinetic energy K

No MRF models present

Creating finite volume options from "system/fvOptions"

Selecting finite volume options model type limitTemperature
    Source: limitT
    - selecting all cells
    - selected 15677 cell(s) with volume 0.000382466
Selecting finite volume options model type limitVelocity
    Source: limitU
    - selecting all cells
    - selected 15677 cell(s) with volume 0.000382466
Courant Number mean: 1.32624e-06 max: 0.00305582
forces forceSplitter:
    Not including porosity effects
surfaceFieldValue pInlet:
    total faces  = 120
    total area   = 0.00048


surfaceFieldValue pOutlet:
    total faces  = 121
    total area   = 0.00048


Reading surface description:
    k5
    T320
    zNormal
    xNormal
    outerWalls
    splitter


Starting time loop

forces forceSplitter write:
    sum of forces:
        pressure : (-4.44089e-16 16.212 3.21846e-17)
        viscous  : (0 0 0)
        porous   : (0 0 0)
    sum of moments:
        pressure : (3.85913e-19 7.87493e-19 2.77556e-17)
        viscous  : (0 0 0)
        porous   : (0 0 0)

surfaceFieldValue pInlet write:
    average(inlet) of p = 101325

surfaceFieldValue pOutlet write:
    average(outlet) of p = 101325

Courant Number mean: 1.32624e-06 max: 0.00305582
deltaT = 5.99995e-07
Time = 5.99995e-07

diagonal:  Solving for rho, Initial residual = 0, Final residual = 0, No Iterations 0
PIMPLE: Iteration 1
smoothSolver:  Solving for Ux, Initial residual = 1, Final residual = 7.32049e-05, No Iterations 1
smoothSolver:  Solving for Uy, Initial residual = 1, Final residual = 0.000162839, No Iterations 1
DILUPBiCGStab:  Solving for CH4, Initial residual = 1, Final residual = 9.38783e-12, No Iterations 1
DILUPBiCGStab:  Solving for O2, Initial residual = 1, Final residual = 9.38783e-12, No Iterations 1
DILUPBiCGStab:  Solving for CO2, Initial residual = 0, Final residual = 0, No Iterations 0
DILUPBiCGStab:  Solving for H2O, Initial residual = 0, Final residual = 0, No Iterations 0
smoothSolver:  Solving for h, Initial residual = 1, Final residual = 1.12356e-07, No Iterations 1
min/max(T) = 300, 900
GAMG:  Solving for p, Initial residual = 1, Final residual = 2.83207e-05, No Iterations 1
diagonal:  Solving for rho, Initial residual = 0, Final residual = 0, No Iterations 0
time step continuity errors : sum local = 2.62172e-10, global = -2.18697e-10, cumulative = -2.18697e-10
GAMG:  Solving for p, Initial residual = 0.000224548, Final residual = 4.55928e-08, No Iterations 1
diagonal:  Solving for rho, Initial residual = 0, Final residual = 0, No Iterations 0
time step continuity errors : sum local = 2.84362e-12, global = -1.00689e-12, cumulative = -2.19703e-10
smoothSolver:  Solving for epsilon, Initial residual = 0.000685738, Final residual = 1.82255e-08, No Iterations 1
smoothSolver:  Solving for k, Initial residual = 1, Final residual = 0.000237163, No Iterations 1
PIMPLE: Iteration 2
smoothSolver:  Solving for Ux, Initial residual = 0.0181831, Final residual = 1.77754e-05, No Iterations 1
smoothSolver:  Solving for Uy, Initial residual = 0.0189101, Final residual = 5.89301e-06, No Iterations 1
DILUPBiCGStab:  Solving for CH4, Initial residual = 0.206102, Final residual = 1.6729e-07, No Iterations 1
DILUPBiCGStab:  Solving for O2, Initial residual = 0.206102, Final residual = 1.6729e-07, No Iterations 1
DILUPBiCGStab:  Solving for CO2, Initial residual = 0, Final residual = 0, No Iterations 0
DILUPBiCGStab:  Solving for H2O, Initial residual = 0, Final residual = 0, No Iterations 0
smoothSolver:  Solving for h, Initial residual = 0.190889, Final residual = 7.29445e-08, No Iterations 2
min/max(T) = 300, 900
GAMG:  Solving for p, Initial residual = 0.118362, Final residual = 1.43324e-05, No Iterations 1
diagonal:  Solving for rho, Initial residual = 0, Final residual = 0, No Iterations 0
time step continuity errors : sum local = 1.01542e-09, global = -8.4109e-10, cumulative = -1.06079e-09
GAMG:  Solving for p, Initial residual = 0.000188833, Final residual = 2.91576e-08, No Iterations 1
diagonal:  Solving for rho, Initial residual = 0, Final residual = 0, No Iterations 0
time step continuity errors : sum local = 7.09863e-12, global = -1.24677e-13, cumulative = -1.06092e-09
smoothSolver:  Solving for epsilon, Initial residual = 0.000459978, Final residual = 3.39358e-08, No Iterations 1
smoothSolver:  Solving for k, Initial residual = 0.248295, Final residual = 0.000251022, No Iterations 1
PIMPLE: Iteration 3
smoothSolver:  Solving for Ux, Initial residual = 0.0176152, Final residual = 2.44582e-05, No Iterations 1
smoothSolver:  Solving for Uy, Initial residual = 0.00296213, Final residual = 1.68965e-06, No Iterations 1
DILUPBiCGStab:  Solving for CH4, Initial residual = 0.0208421, Final residual = 4.97059e-08, No Iterations 1
DILUPBiCGStab:  Solving for O2, Initial residual = 0.0208421, Final residual = 4.97059e-08, No Iterations 1
DILUPBiCGStab:  Solving for CO2, Initial residual = 0, Final residual = 0, No Iterations 0
DILUPBiCGStab:  Solving for H2O, Initial residual = 0, Final residual = 0, No Iterations 0
smoothSolver:  Solving for h, Initial residual = 0.0129933, Final residual = 9.1515e-09, No Iterations 2
min/max(T) = 299.999, 900
GAMG:  Solving for p, Initial residual = 0.0124381, Final residual = 1.68582e-06, No Iterations 1
diagonal:  Solving for rho, Initial residual = 0, Final residual = 0, No Iterations 0
time step continuity errors : sum local = 4.10712e-10, global = 3.3273e-10, cumulative = -7.28189e-10
GAMG:  Solving for p, Initial residual = 9.49399e-05, Final residual = 2.01081e-08, No Iterations 1
diagonal:  Solving for rho, Initial residual = 0, Final residual = 0, No Iterations 0
time step continuity errors : sum local = 3.78216e-12, global = 1.00349e-12, cumulative = -7.27185e-10
smoothSolver:  Solving for epsilon, Initial residual = 5.39155e-05, Final residual = 7.06376e-09, No Iterations 1
smoothSolver:  Solving for k, Initial residual = 0.013194, Final residual = 9.93506e-06, No Iterations 1
PIMPLE: Iteration 4
smoothSolver:  Solving for Ux, Initial residual = 0.0129378, Final residual = 1.5213e-05, No Iterations 1
smoothSolver:  Solving for Uy, Initial residual = 6.34214e-05, Final residual = 4.60529e-08, No Iterations 1
DILUPBiCGStab:  Solving for CH4, Initial residual = 0.000751779, Final residual = 4.15681e-07, No Iterations 1
DILUPBiCGStab:  Solving for O2, Initial residual = 0.00075176, Final residual = 4.15679e-07, No Iterations 1
DILUPBiCGStab:  Solving for CO2, Initial residual = 0, Final residual = 0, No Iterations 0
DILUPBiCGStab:  Solving for H2O, Initial residual = 0, Final residual = 0, No Iterations 0
smoothSolver:  Solving for h, Initial residual = 0.00763286, Final residual = 8.38324e-09, No Iterations 2
min/max(T) = 299.999, 900
GAMG:  Solving for p, Initial residual = 0.00443107, Final residual = 5.37607e-07, No Iterations 1
diagonal:  Solving for rho, Initial residual = 0, Final residual = 0, No Iterations 0
time step continuity errors : sum local = 1.00709e-10, global = 8.36525e-11, cumulative = -6.43533e-10
GAMG:  Solving for p, Initial residual = 2.84572e-05, Final residual = 5.60183e-09, No Iterations 1
diagonal:  Solving for rho, Initial residual = 0, Final residual = 0, No Iterations 0
time step continuity errors : sum local = 9.5398e-13, global = 2.03255e-13, cumulative = -6.4333e-10
smoothSolver:  Solving for epsilon, Initial residual = 1.3555e-05, Final residual = 8.30662e-09, No Iterations 1
smoothSolver:  Solving for k, Initial residual = 0.0123425, Final residual = 1.96438e-05, No Iterations 1
PIMPLE: Iteration 5
smoothSolver:  Solving for Ux, Initial residual = 0.0041278, Final residual = 4.53282e-06, No Iterations 1
smoothSolver:  Solving for Uy, Initial residual = 2.54271e-05, Final residual = 2.18698e-08, No Iterations 1
DILUPBiCGStab:  Solving for CH4, Initial residual = 0.000227039, Final residual = 8.43256e-08, No Iterations 1
DILUPBiCGStab:  Solving for O2, Initial residual = 0.000227022, Final residual = 8.43248e-08, No Iterations 1
DILUPBiCGStab:  Solving for CO2, Initial residual = 0, Final residual = 0, No Iterations 0
DILUPBiCGStab:  Solving for H2O, Initial residual = 0, Final residual = 0, No Iterations 0
smoothSolver:  Solving for h, Initial residual = 0.00267859, Final residual = 7.88854e-07, No Iterations 1
min/max(T) = 299.999, 900
GAMG:  Solving for p, Initial residual = 0.0014628, Final residual = 1.44858e-07, No Iterations 1
diagonal:  Solving for rho, Initial residual = 0, Final residual = 0, No Iterations 0
time step continuity errors : sum local = 2.46338e-11, global = 2.124e-11, cumulative = -6.2209e-10
GAMG:  Solving for p, Initial residual = 8.35309e-06, Final residual = 8.35309e-06, No Iterations 0
diagonal:  Solving for rho, Initial residual = 0, Final residual = 0, No Iterations 0
time step continuity errors : sum local = 1.37706e-09, global = -1.10136e-09, cumulative = -1.72345e-09
smoothSolver:  Solving for epsilon, Initial residual = 6.50858e-06, Final residual = 6.50858e-06, No Iterations 0
smoothSolver:  Solving for k, Initial residual = 0.00933882, Final residual = 1.34181e-05, No Iterations 1
PIMPLE: Iteration 6
smoothSolver:  Solving for Ux, Initial residual = 0.00261387, Final residual = 2.60622e-06, No Iterations 1
smoothSolver:  Solving for Uy, Initial residual = 1.62091e-05, Final residual = 1.54652e-08, No Iterations 1
DILUPBiCGStab:  Solving for CH4, Initial residual = 9.58707e-05, Final residual = 3.92982e-08, No Iterations 1
DILUPBiCGStab:  Solving for O2, Initial residual = 9.58568e-05, Final residual = 3.92973e-08, No Iterations 1
DILUPBiCGStab:  Solving for CO2, Initial residual = 0, Final residual = 0, No Iterations 0
DILUPBiCGStab:  Solving for H2O, Initial residual = 0, Final residual = 0, No Iterations 0
smoothSolver:  Solving for h, Initial residual = 0.000844689, Final residual = 2.24819e-07, No Iterations 1
min/max(T) = 299.999, 900
GAMG:  Solving for p, Initial residual = 0.000457856, Final residual = 3.83767e-08, No Iterations 1
diagonal:  Solving for rho, Initial residual = 0, Final residual = 0, No Iterations 0
time step continuity errors : sum local = 6.32537e-12, global = 5.34214e-12, cumulative = -1.7181e-09
GAMG:  Solving for p, Initial residual = 2.45681e-06, Final residual = 2.45681e-06, No Iterations 0
diagonal:  Solving for rho, Initial residual = 0, Final residual = 0, No Iterations 0
time step continuity errors : sum local = 4.00997e-10, global = -3.00967e-10, cumulative = -2.01907e-09
smoothSolver:  Solving for epsilon, Initial residual = 8.78226e-06, Final residual = 8.78226e-06, No Iterations 0
smoothSolver:  Solving for k, Initial residual = 0.00811214, Final residual = 1.02197e-05, No Iterations 1
PIMPLE: Iteration 7
smoothSolver:  Solving for Ux, Initial residual = 0.00139757, Final residual = 1.29041e-06, No Iterations 1
smoothSolver:  Solving for Uy, Initial residual = 8.5583e-06, Final residual = 8.5583e-06, No Iterations 0
DILUPBiCGStab:  Solving for CH4, Initial residual = 4.28671e-05, Final residual = 2.1599e-08, No Iterations 1
DILUPBiCGStab:  Solving for O2, Initial residual = 4.28553e-05, Final residual = 2.15981e-08, No Iterations 1
DILUPBiCGStab:  Solving for CO2, Initial residual = 0, Final residual = 0, No Iterations 0
DILUPBiCGStab:  Solving for H2O, Initial residual = 0, Final residual = 0, No Iterations 0
smoothSolver:  Solving for h, Initial residual = 0.000259356, Final residual = 6.70328e-08, No Iterations 1
min/max(T) = 299.999, 900
GAMG:  Solving for p, Initial residual = 0.000141373, Final residual = 1.44936e-08, No Iterations 1
diagonal:  Solving for rho, Initial residual = 0, Final residual = 0, No Iterations 0
time step continuity errors : sum local = 2.36556e-12, global = 1.29121e-12, cumulative = -2.01778e-09
GAMG:  Solving for p, Initial residual = 8.29946e-07, Final residual = 8.29946e-07, No Iterations 0
diagonal:  Solving for rho, Initial residual = 0, Final residual = 0, No Iterations 0
time step continuity errors : sum local = 1.35046e-10, global = -7.8429e-11, cumulative = -2.09621e-09
smoothSolver:  Solving for epsilon, Initial residual = 1.02048e-05, Final residual = 7.94079e-09, No Iterations 1
smoothSolver:  Solving for k, Initial residual = 0.00567585, Final residual = 6.51175e-06, No Iterations 1
PIMPLE: Iteration 8
smoothSolver:  Solving for Ux, Initial residual = 0.00126172, Final residual = 1.11491e-06, No Iterations 1
smoothSolver:  Solving for Uy, Initial residual = 7.30437e-06, Final residual = 7.30437e-06, No Iterations 0
DILUPBiCGStab:  Solving for CH4, Initial residual = 3.4135e-05, Final residual = 1.84139e-08, No Iterations 1
DILUPBiCGStab:  Solving for O2, Initial residual = 3.41233e-05, Final residual = 1.84138e-08, No Iterations 1
DILUPBiCGStab:  Solving for CO2, Initial residual = 0, Final residual = 0, No Iterations 0
DILUPBiCGStab:  Solving for H2O, Initial residual = 0, Final residual = 0, No Iterations 0
smoothSolver:  Solving for h, Initial residual = 7.84857e-05, Final residual = 2.14974e-08, No Iterations 1
min/max(T) = 299.999, 900
GAMG:  Solving for p, Initial residual = 4.86671e-05, Final residual = 6.91273e-09, No Iterations 1
diagonal:  Solving for rho, Initial residual = 0, Final residual = 0, No Iterations 0
time step continuity errors : sum local = 1.12489e-12, global = 4.31093e-13, cumulative = -2.09578e-09
GAMG:  Solving for p, Initial residual = 3.1479e-07, Final residual = 3.1479e-07, No Iterations 0
diagonal:  Solving for rho, Initial residual = 0, Final residual = 0, No Iterations 0
time step continuity errors : sum local = 5.11756e-11, global = -3.10566e-11, cumulative = -2.12683e-09
smoothSolver:  Solving for epsilon, Initial residual = 1.21446e-06, Final residual = 1.21446e-06, No Iterations 0
smoothSolver:  Solving for k, Initial residual = 0.00561109, Final residual = 6.08391e-06, No Iterations 1
PIMPLE: Iteration 9
smoothSolver:  Solving for Ux, Initial residual = 0.000845177, Final residual = 7.65594e-07, No Iterations 1
smoothSolver:  Solving for Uy, Initial residual = 5.03887e-06, Final residual = 5.03887e-06, No Iterations 0
DILUPBiCGStab:  Solving for CH4, Initial residual = 2.2419e-05, Final residual = 1.26158e-08, No Iterations 1
DILUPBiCGStab:  Solving for O2, Initial residual = 2.24044e-05, Final residual = 1.26157e-08, No Iterations 1
DILUPBiCGStab:  Solving for CO2, Initial residual = 0, Final residual = 0, No Iterations 0
DILUPBiCGStab:  Solving for H2O, Initial residual = 0, Final residual = 0, No Iterations 0
smoothSolver:  Solving for h, Initial residual = 3.61793e-05, Final residual = 1.46118e-08, No Iterations 1
min/max(T) = 299.999, 900
GAMG:  Solving for p, Initial residual = 2.48552e-05, Final residual = 6.45484e-09, No Iterations 1
diagonal:  Solving for rho, Initial residual = 0, Final residual = 0, No Iterations 0
time step continuity errors : sum local = 1.04946e-12, global = 1.75712e-13, cumulative = -2.12666e-09
GAMG:  Solving for p, Initial residual = 2.43244e-07, Final residual = 2.43244e-07, No Iterations 0
diagonal:  Solving for rho, Initial residual = 0, Final residual = 0, No Iterations 0
time step continuity errors : sum local = 3.95342e-11, global = -1.46635e-11, cumulative = -2.14132e-09
smoothSolver:  Solving for epsilon, Initial residual = 5.88119e-07, Final residual = 5.88119e-07, No Iterations 0
smoothSolver:  Solving for k, Initial residual = 0.003514, Final residual = 4.0765e-06, No Iterations 1
PIMPLE: Iteration 10
smoothSolver:  Solving for Ux, Initial residual = 0.000649229, Final residual = 6.20759e-07, No Iterations 1
smoothSolver:  Solving for Uy, Initial residual = 3.83158e-06, Final residual = 3.83158e-06, No Iterations 0
DILUPBiCGStab:  Solving for CH4, Initial residual = 1.66319e-05, Final residual = 1.00944e-08, No Iterations 1
DILUPBiCGStab:  Solving for O2, Initial residual = 1.66147e-05, Final residual = 1.00941e-08, No Iterations 1
DILUPBiCGStab:  Solving for CO2, Initial residual = 0, Final residual = 0, No Iterations 0
DILUPBiCGStab:  Solving for H2O, Initial residual = 0, Final residual = 0, No Iterations 0
smoothSolver:  Solving for h, Initial residual = 2.05664e-05, Final residual = 1.15696e-08, No Iterations 1
min/max(T) = 299.999, 900
GAMG:  Solving for p, Initial residual = 1.5235e-05, Final residual = 5.18671e-09, No Iterations 1
diagonal:  Solving for rho, Initial residual = 0, Final residual = 0, No Iterations 0
time step continuity errors : sum local = 8.43089e-13, global = 9.52824e-14, cumulative = -2.14123e-09
GAMG:  Solving for p, Initial residual = 1.8568e-07, Final residual = 1.8568e-07, No Iterations 0
diagonal:  Solving for rho, Initial residual = 0, Final residual = 0, No Iterations 0
time step continuity errors : sum local = 3.01764e-11, global = -8.5017e-12, cumulative = -2.14973e-09
smoothSolver:  Solving for epsilon, Initial residual = 4.8185e-07, Final residual = 4.8185e-07, No Iterations 0
smoothSolver:  Solving for k, Initial residual = 0.00242368, Final residual = 2.98505e-06, No Iterations 1
PIMPLE: Iteration 11
smoothSolver:  Solving for Ux, Initial residual = 0.000512627, Final residual = 5.1441e-07, No Iterations 1
smoothSolver:  Solving for Uy, Initial residual = 3.00857e-06, Final residual = 3.00857e-06, No Iterations 0
DILUPBiCGStab:  Solving for CH4, Initial residual = 1.28666e-05, Final residual = 8.3251e-09, No Iterations 1
DILUPBiCGStab:  Solving for O2, Initial residual = 1.28476e-05, Final residual = 8.32472e-09, No Iterations 1
DILUPBiCGStab:  Solving for CO2, Initial residual = 0, Final residual = 0, No Iterations 0
DILUPBiCGStab:  Solving for H2O, Initial residual = 0, Final residual = 0, No Iterations 0
smoothSolver:  Solving for h, Initial residual = 1.37706e-05, Final residual = 9.51208e-09, No Iterations 1
min/max(T) = 299.999, 900
GAMG:  Solving for p, Initial residual = 1.06729e-05, Final residual = 4.09759e-09, No Iterations 1
diagonal:  Solving for rho, Initial residual = 0, Final residual = 0, No Iterations 0
time step continuity errors : sum local = 6.66032e-13, global = 6.5079e-14, cumulative = -2.14966e-09
GAMG:  Solving for p, Initial residual = 1.43441e-07, Final residual = 1.43441e-07, No Iterations 0
diagonal:  Solving for rho, Initial residual = 0, Final residual = 0, No Iterations 0
time step continuity errors : sum local = 2.33115e-11, global = -5.77343e-12, cumulative = -2.15544e-09
smoothSolver:  Solving for epsilon, Initial residual = 8.14309e-07, Final residual = 8.14309e-07, No Iterations 0
smoothSolver:  Solving for k, Initial residual = 0.00177854, Final residual = 2.31636e-06, No Iterations 1
PIMPLE: Iteration 12
smoothSolver:  Solving for Ux, Initial residual = 0.000414462, Final residual = 4.36268e-07, No Iterations 1
smoothSolver:  Solving for Uy, Initial residual = 2.42206e-06, Final residual = 2.42206e-06, No Iterations 0
DILUPBiCGStab:  Solving for CH4, Initial residual = 1.02231e-05, Final residual = 7.04486e-09, No Iterations 1
DILUPBiCGStab:  Solving for O2, Initial residual = 1.02027e-05, Final residual = 7.04437e-09, No Iterations 1
DILUPBiCGStab:  Solving for CO2, Initial residual = 0, Final residual = 0, No Iterations 0
DILUPBiCGStab:  Solving for H2O, Initial residual = 0, Final residual = 0, No Iterations 0
smoothSolver:  Solving for h, Initial residual = 1.01893e-05, Final residual = 7.92699e-09, No Iterations 1
min/max(T) = 299.999, 900
GAMG:  Solving for p, Initial residual = 8.08482e-06, Final residual = 8.08482e-06, No Iterations 0
diagonal:  Solving for rho, Initial residual = 0, Final residual = 0, No Iterations 0
time step continuity errors : sum local = 1.31391e-09, global = -2.2886e-11, cumulative = -2.17832e-09
GAMG:  Solving for p, Initial residual = 8.08452e-06, Final residual = 8.08452e-06, No Iterations 0
diagonal:  Solving for rho, Initial residual = 0, Final residual = 0, No Iterations 0
time step continuity errors : sum local = 1.31386e-09, global = -2.2886e-11, cumulative = -2.20121e-09
smoothSolver:  Solving for epsilon, Initial residual = 1.09425e-06, Final residual = 1.09425e-06, No Iterations 0
smoothSolver:  Solving for k, Initial residual = 0.00141749, Final residual = 1.91471e-06, No Iterations 1
PIMPLE: Iteration 13
smoothSolver:  Solving for Ux, Initial residual = 0.000357829, Final residual = 3.89047e-07, No Iterations 1
smoothSolver:  Solving for Uy, Initial residual = 2.05813e-06, Final residual = 2.05813e-06, No Iterations 0
DILUPBiCGStab:  Solving for CH4, Initial residual = 8.52124e-06, Final residual = 6.0879e-09, No Iterations 1
DILUPBiCGStab:  Solving for O2, Initial residual = 8.49984e-06, Final residual = 6.08734e-09, No Iterations 1
DILUPBiCGStab:  Solving for CO2, Initial residual = 0, Final residual = 0, No Iterations 0
DILUPBiCGStab:  Solving for H2O, Initial residual = 0, Final residual = 0, No Iterations 0
smoothSolver:  Solving for h, Initial residual = 4.25606e-06, Final residual = 4.04329e-09, No Iterations 1
min/max(T) = 299.999, 900
GAMG:  Solving for p, Initial residual = 1.26619e-05, Final residual = 5.25186e-09, No Iterations 1
diagonal:  Solving for rho, Initial residual = 0, Final residual = 0, No Iterations 0
time step continuity errors : sum local = 8.53611e-13, global = 7.91483e-14, cumulative = -2.20113e-09
GAMG:  Solving for p, Initial residual = 1.78468e-07, Final residual = 1.78468e-07, No Iterations 0
diagonal:  Solving for rho, Initial residual = 0, Final residual = 0, No Iterations 0
time step continuity errors : sum local = 2.90041e-11, global = -6.65228e-12, cumulative = -2.20778e-09
smoothSolver:  Solving for epsilon, Initial residual = 1.29567e-06, Final residual = 1.29567e-06, No Iterations 0
smoothSolver:  Solving for k, Initial residual = 0.00108128, Final residual = 1.56255e-06, No Iterations 1
PIMPLE: Iteration 14
smoothSolver:  Solving for Ux, Initial residual = 0.000286375, Final residual = 3.30265e-07, No Iterations 1
smoothSolver:  Solving for Uy, Initial residual = 1.6812e-06, Final residual = 1.6812e-06, No Iterations 0
DILUPBiCGStab:  Solving for CH4, Initial residual = 6.96668e-06, Final residual = 5.45933e-09, No Iterations 1
DILUPBiCGStab:  Solving for O2, Initial residual = 6.94442e-06, Final residual = 5.45862e-09, No Iterations 1
DILUPBiCGStab:  Solving for CO2, Initial residual = 0, Final residual = 0, No Iterations 0
DILUPBiCGStab:  Solving for H2O, Initial residual = 0, Final residual = 0, No Iterations 0
smoothSolver:  Solving for h, Initial residual = 9.51562e-06, Final residual = 8.01802e-09, No Iterations 1
min/max(T) = 299.999, 900
GAMG:  Solving for p, Initial residual = 6.7957e-06, Final residual = 6.7957e-06, No Iterations 0
diagonal:  Solving for rho, Initial residual = 0, Final residual = 0, No Iterations 0
time step continuity errors : sum local = 1.10442e-09, global = -8.1543e-12, cumulative = -2.21594e-09
GAMG:  Solving for p, Initial residual = 6.79558e-06, Final residual = 6.79558e-06, No Iterations 0
diagonal:  Solving for rho, Initial residual = 0, Final residual = 0, No Iterations 0
time step continuity errors : sum local = 1.1044e-09, global = -8.1543e-12, cumulative = -2.22409e-09
smoothSolver:  Solving for epsilon, Initial residual = 1.4808e-06, Final residual = 1.4808e-06, No Iterations 0
smoothSolver:  Solving for k, Initial residual = 0.000913141, Final residual = 1.36513e-06, No Iterations 1
PIMPLE: Iteration 15
smoothSolver:  Solving for Ux, Initial residual = 0.000256537, Final residual = 3.05504e-07, No Iterations 1
smoothSolver:  Solving for Uy, Initial residual = 1.46543e-06, Final residual = 1.46543e-06, No Iterations 0
DILUPBiCGStab:  Solving for CH4, Initial residual = 5.87723e-06, Final residual = 4.79119e-09, No Iterations 1
DILUPBiCGStab:  Solving for O2, Initial residual = 5.8543e-06, Final residual = 4.79037e-09, No Iterations 1
DILUPBiCGStab:  Solving for CO2, Initial residual = 0, Final residual = 0, No Iterations 0
DILUPBiCGStab:  Solving for H2O, Initial residual = 0, Final residual = 0, No Iterations 0
smoothSolver:  Solving for h, Initial residual = 2.98082e-06, Final residual = 3.15672e-09, No Iterations 1
min/max(T) = 299.999, 900
GAMG:  Solving for p, Initial residual = 9.95961e-06, Final residual = 9.95961e-06, No Iterations 0
diagonal:  Solving for rho, Initial residual = 0, Final residual = 0, No Iterations 0
time step continuity errors : sum local = 1.61861e-09, global = 8.85891e-12, cumulative = -2.21523e-09
GAMG:  Solving for p, Initial residual = 9.95951e-06, Final residual = 9.95951e-06, No Iterations 0
diagonal:  Solving for rho, Initial residual = 0, Final residual = 0, No Iterations 0
time step continuity errors : sum local = 1.61859e-09, global = 8.85891e-12, cumulative = -2.20637e-09
smoothSolver:  Solving for epsilon, Initial residual = 1.6418e-06, Final residual = 1.6418e-06, No Iterations 0
smoothSolver:  Solving for k, Initial residual = 0.000788413, Final residual = 1.21748e-06, No Iterations 1
PIMPLE: Iteration 16
smoothSolver:  Solving for Ux, Initial residual = 0.000230673, Final residual = 2.82932e-07, No Iterations 1
smoothSolver:  Solving for Uy, Initial residual = 1.31529e-06, Final residual = 1.31529e-06, No Iterations 0
DILUPBiCGStab:  Solving for CH4, Initial residual = 5.22271e-06, Final residual = 4.43609e-09, No Iterations 1
DILUPBiCGStab:  Solving for O2, Initial residual = 5.19923e-06, Final residual = 4.43516e-09, No Iterations 1
DILUPBiCGStab:  Solving for CO2, Initial residual = 0, Final residual = 0, No Iterations 0
DILUPBiCGStab:  Solving for H2O, Initial residual = 0, Final residual = 0, No Iterations 0
smoothSolver:  Solving for h, Initial residual = 2.65445e-06, Final residual = 2.9158e-09, No Iterations 1
min/max(T) = 299.999, 900
GAMG:  Solving for p, Initial residual = 1.27749e-05, Final residual = 5.41581e-09, No Iterations 1
diagonal:  Solving for rho, Initial residual = 0, Final residual = 0, No Iterations 0
time step continuity errors : sum local = 8.80262e-13, global = 9.29569e-14, cumulative = -2.20628e-09
GAMG:  Solving for p, Initial residual = 1.79753e-07, Final residual = 1.79753e-07, No Iterations 0
diagonal:  Solving for rho, Initial residual = 0, Final residual = 0, No Iterations 0
time step continuity errors : sum local = 2.92134e-11, global = -6.67557e-12, cumulative = -2.21296e-09
smoothSolver:  Solving for epsilon, Initial residual = 1.74866e-06, Final residual = 1.74866e-06, No Iterations 0
smoothSolver:  Solving for k, Initial residual = 0.000602296, Final residual = 1.01833e-06, No Iterations 1
PIMPLE: Iteration 17
smoothSolver:  Solving for Ux, Initial residual = 0.000178564, Final residual = 2.37713e-07, No Iterations 1
smoothSolver:  Solving for Uy, Initial residual = 1.05266e-06, Final residual = 1.05266e-06, No Iterations 0
DILUPBiCGStab:  Solving for CH4, Initial residual = 4.17623e-06, Final residual = 4.08433e-09, No Iterations 1
DILUPBiCGStab:  Solving for O2, Initial residual = 4.15226e-06, Final residual = 4.08313e-09, No Iterations 1
DILUPBiCGStab:  Solving for CO2, Initial residual = 0, Final residual = 0, No Iterations 0
DILUPBiCGStab:  Solving for H2O, Initial residual = 0, Final residual = 0, No Iterations 0
smoothSolver:  Solving for h, Initial residual = 8.21877e-06, Final residual = 7.73708e-09, No Iterations 1
min/max(T) = 299.999, 900
GAMG:  Solving for p, Initial residual = 5.33099e-06, Final residual = 5.33099e-06, No Iterations 0
diagonal:  Solving for rho, Initial residual = 0, Final residual = 0, No Iterations 0
time step continuity errors : sum local = 8.66388e-10, global = -1.00397e-11, cumulative = -2.223e-09
GAMG:  Solving for p, Initial residual = 5.33088e-06, Final residual = 5.33088e-06, No Iterations 0
diagonal:  Solving for rho, Initial residual = 0, Final residual = 0, No Iterations 0
time step continuity errors : sum local = 8.66369e-10, global = -1.00397e-11, cumulative = -2.23304e-09
smoothSolver:  Solving for epsilon, Initial residual = 1.85947e-06, Final residual = 1.85947e-06, No Iterations 0
smoothSolver:  Solving for k, Initial residual = 0.000535547, Final residual = 9.35113e-07, No Iterations 1
PIMPLE: Iteration 18
smoothSolver:  Solving for Ux, Initial residual = 0.000167245, Final residual = 2.29439e-07, No Iterations 1
smoothSolver:  Solving for Uy, Initial residual = 9.42927e-07, Final residual = 9.42927e-07, No Iterations 0
DILUPBiCGStab:  Solving for CH4, Initial residual = 3.53027e-06, Final residual = 3.62751e-09, No Iterations 1
DILUPBiCGStab:  Solving for O2, Initial residual = 3.50594e-06, Final residual = 3.62607e-09, No Iterations 1
DILUPBiCGStab:  Solving for CO2, Initial residual = 0, Final residual = 0, No Iterations 0
DILUPBiCGStab:  Solving for H2O, Initial residual = 0, Final residual = 0, No Iterations 0
smoothSolver:  Solving for h, Initial residual = 1.84933e-06, Final residual = 2.35115e-09, No Iterations 1
min/max(T) = 299.999, 900
GAMG:  Solving for p, Initial residual = 7.2454e-06, Final residual = 7.2454e-06, No Iterations 0
diagonal:  Solving for rho, Initial residual = 0, Final residual = 0, No Iterations 0
time step continuity errors : sum local = 1.17752e-09, global = 2.47915e-13, cumulative = -2.23279e-09
GAMG:  Solving for p, Initial residual = 7.24529e-06, Final residual = 7.24529e-06, No Iterations 0
diagonal:  Solving for rho, Initial residual = 0, Final residual = 0, No Iterations 0
time step continuity errors : sum local = 1.1775e-09, global = 2.47915e-13, cumulative = -2.23254e-09
smoothSolver:  Solving for epsilon, Initial residual = 1.95969e-06, Final residual = 1.95969e-06, No Iterations 0
smoothSolver:  Solving for k, Initial residual = 0.000483593, Final residual = 8.70307e-07, No Iterations 1
PIMPLE: Iteration 19
smoothSolver:  Solving for Ux, Initial residual = 0.000154918, Final residual = 2.18605e-07, No Iterations 1
smoothSolver:  Solving for Uy, Initial residual = 8.71538e-07, Final residual = 8.71538e-07, No Iterations 0
DILUPBiCGStab:  Solving for CH4, Initial residual = 3.21819e-06, Final residual = 3.45931e-09, No Iterations 1
DILUPBiCGStab:  Solving for O2, Initial residual = 3.19355e-06, Final residual = 3.45771e-09, No Iterations 1
DILUPBiCGStab:  Solving for CO2, Initial residual = 0, Final residual = 0, No Iterations 0
DILUPBiCGStab:  Solving for H2O, Initial residual = 0, Final residual = 0, No Iterations 0
smoothSolver:  Solving for h, Initial residual = 1.69008e-06, Final residual = 2.235e-09, No Iterations 1
min/max(T) = 299.999, 900
GAMG:  Solving for p, Initial residual = 8.9931e-06, Final residual = 8.9931e-06, No Iterations 0
diagonal:  Solving for rho, Initial residual = 0, Final residual = 0, No Iterations 0
time step continuity errors : sum local = 1.46155e-09, global = 9.67125e-12, cumulative = -2.22287e-09
GAMG:  Solving for p, Initial residual = 8.99305e-06, Final residual = 8.99305e-06, No Iterations 0
diagonal:  Solving for rho, Initial residual = 0, Final residual = 0, No Iterations 0
time step continuity errors : sum local = 1.46154e-09, global = 9.67125e-12, cumulative = -2.2132e-09
smoothSolver:  Solving for epsilon, Initial residual = 2.0514e-06, Final residual = 2.0514e-06, No Iterations 0
smoothSolver:  Solving for k, Initial residual = 0.000441463, Final residual = 8.18896e-07, No Iterations 1
PIMPLE: Iteration 20
smoothSolver:  Solving for Ux, Initial residual = 0.000144828, Final residual = 2.10157e-07, No Iterations 1
smoothSolver:  Solving for Uy, Initial residual = 8.12631e-07, Final residual = 8.12631e-07, No Iterations 0
DILUPBiCGStab:  Solving for CH4, Initial residual = 2.95686e-06, Final residual = 3.32716e-09, No Iterations 1
DILUPBiCGStab:  Solving for O2, Initial residual = 2.93194e-06, Final residual = 3.32539e-09, No Iterations 1
DILUPBiCGStab:  Solving for CO2, Initial residual = 0, Final residual = 0, No Iterations 0
DILUPBiCGStab:  Solving for H2O, Initial residual = 0, Final residual = 0, No Iterations 0
smoothSolver:  Solving for h, Initial residual = 1.56333e-06, Final residual = 2.14408e-09, No Iterations 1
min/max(T) = 299.999, 900
GAMG:  Solving for p, Initial residual = 1.06027e-05, Final residual = 4.57677e-09, No Iterations 1
diagonal:  Solving for rho, Initial residual = 0, Final residual = 0, No Iterations 0
time step continuity errors : sum local = 7.43915e-13, global = 1.00038e-13, cumulative = -2.2131e-09
GAMG:  Solving for p, Initial residual = 1.4402e-07, Final residual = 1.4402e-07, No Iterations 0
diagonal:  Solving for rho, Initial residual = 0, Final residual = 0, No Iterations 0
time step continuity errors : sum local = 2.34064e-11, global = -5.52818e-12, cumulative = -2.21862e-09
smoothSolver:  Solving for epsilon, Initial residual = 2.10524e-06, Final residual = 2.10524e-06, No Iterations 0
smoothSolver:  Solving for k, Initial residual = 0.000332028, Final residual = 6.87489e-07, No Iterations 1
PIMPLE: Iteration 21
smoothSolver:  Solving for Ux, Initial residual = 0.000107598, Final residual = 1.72537e-07, No Iterations 1
smoothSolver:  Solving for Uy, Initial residual = 6.32414e-07, Final residual = 6.32414e-07, No Iterations 0
DILUPBiCGStab:  Solving for CH4, Initial residual = 2.29782e-06, Final residual = 3.09482e-09, No Iterations 1
DILUPBiCGStab:  Solving for O2, Initial residual = 2.27266e-06, Final residual = 3.09256e-09, No Iterations 1
DILUPBiCGStab:  Solving for CO2, Initial residual = 0, Final residual = 0, No Iterations 0
DILUPBiCGStab:  Solving for H2O, Initial residual = 0, Final residual = 0, No Iterations 0
smoothSolver:  Solving for h, Initial residual = 6.2692e-06, Final residual = 7.08052e-09, No Iterations 1
min/max(T) = 299.999, 900
GAMG:  Solving for p, Initial residual = 3.80416e-06, Final residual = 3.80416e-06, No Iterations 0
diagonal:  Solving for rho, Initial residual = 0, Final residual = 0, No Iterations 0
time step continuity errors : sum local = 6.18256e-10, global = -1.21528e-11, cumulative = -2.23078e-09
GAMG:  Solving for p, Initial residual = 3.80408e-06, Final residual = 3.80408e-06, No Iterations 0
diagonal:  Solving for rho, Initial residual = 0, Final residual = 0, No Iterations 0
time step continuity errors : sum local = 6.18242e-10, global = -1.21528e-11, cumulative = -2.24293e-09
smoothSolver:  Solving for epsilon, Initial residual = 2.16902e-06, Final residual = 2.16902e-06, No Iterations 0
smoothSolver:  Solving for k, Initial residual = 0.000308621, Final residual = 6.56103e-07, No Iterations 1
PIMPLE: Iteration 22
smoothSolver:  Solving for Ux, Initial residual = 0.000105421, Final residual = 1.73296e-07, No Iterations 1
smoothSolver:  Solving for Uy, Initial residual = 5.82259e-07, Final residual = 5.82259e-07, No Iterations 0
DILUPBiCGStab:  Solving for CH4, Initial residual = 1.93551e-06, Final residual = 2.7675e-09, No Iterations 1
DILUPBiCGStab:  Solving for O2, Initial residual = 1.91018e-06, Final residual = 2.76476e-09, No Iterations 1
DILUPBiCGStab:  Solving for CO2, Initial residual = 0, Final residual = 0, No Iterations 0
DILUPBiCGStab:  Solving for H2O, Initial residual = 0, Final residual = 0, No Iterations 0
smoothSolver:  Solving for h, Initial residual = 1.0753e-06, Final residual = 1.76369e-09, No Iterations 1
min/max(T) = 299.999, 900
GAMG:  Solving for p, Initial residual = 4.87021e-06, Final residual = 4.87021e-06, No Iterations 0
diagonal:  Solving for rho, Initial residual = 0, Final residual = 0, No Iterations 0
time step continuity errors : sum local = 7.9151e-10, global = -6.43988e-12, cumulative = -2.24937e-09
GAMG:  Solving for p, Initial residual = 4.87013e-06, Final residual = 4.87013e-06, No Iterations 0
diagonal:  Solving for rho, Initial residual = 0, Final residual = 0, No Iterations 0
time step continuity errors : sum local = 7.91497e-10, global = -6.43988e-12, cumulative = -2.25581e-09
smoothSolver:  Solving for epsilon, Initial residual = 2.22858e-06, Final residual = 2.22858e-06, No Iterations 0
smoothSolver:  Solving for k, Initial residual = 0.000288884, Final residual = 6.28238e-07, No Iterations 1
PIMPLE: Iteration 23
smoothSolver:  Solving for Ux, Initial residual = 0.000100211, Final residual = 1.68308e-07, No Iterations 1
smoothSolver:  Solving for Uy, Initial residual = 5.52476e-07, Final residual = 5.52476e-07, No Iterations 0
DILUPBiCGStab:  Solving for CH4, Initial residual = 1.81185e-06, Final residual = 2.68786e-09, No Iterations 1
DILUPBiCGStab:  Solving for O2, Initial residual = 1.78638e-06, Final residual = 2.68482e-09, No Iterations 1
DILUPBiCGStab:  Solving for CO2, Initial residual = 0, Final residual = 0, No Iterations 0
DILUPBiCGStab:  Solving for H2O, Initial residual = 0, Final residual = 0, No Iterations 0
smoothSolver:  Solving for h, Initial residual = 1.00827e-06, Final residual = 1.7111e-09, No Iterations 1
min/max(T) = 299.999, 900
GAMG:  Solving for p, Initial residual = 5.8689e-06, Final residual = 5.8689e-06, No Iterations 0
diagonal:  Solving for rho, Initial residual = 0, Final residual = 0, No Iterations 0
time step continuity errors : sum local = 9.53818e-10, global = -1.0394e-12, cumulative = -2.25685e-09
GAMG:  Solving for p, Initial residual = 5.86883e-06, Final residual = 5.86883e-06, No Iterations 0
diagonal:  Solving for rho, Initial residual = 0, Final residual = 0, No Iterations 0
time step continuity errors : sum local = 9.53807e-10, global = -1.0394e-12, cumulative = -2.25789e-09
smoothSolver:  Solving for epsilon, Initial residual = 2.28467e-06, Final residual = 2.28467e-06, No Iterations 0
smoothSolver:  Solving for k, Initial residual = 0.000272158, Final residual = 6.05305e-07, No Iterations 1
PIMPLE: Iteration 24
smoothSolver:  Solving for Ux, Initial residual = 9.59148e-05, Final residual = 1.64416e-07, No Iterations 1
smoothSolver:  Solving for Uy, Initial residual = 5.27607e-07, Final residual = 5.27607e-07, No Iterations 0
DILUPBiCGStab:  Solving for CH4, Initial residual = 1.7056e-06, Final residual = 2.62208e-09, No Iterations 1
DILUPBiCGStab:  Solving for O2, Initial residual = 1.67999e-06, Final residual = 2.61877e-09, No Iterations 1
DILUPBiCGStab:  Solving for CO2, Initial residual = 0, Final residual = 0, No Iterations 0
DILUPBiCGStab:  Solving for H2O, Initial residual = 0, Final residual = 0, No Iterations 0
smoothSolver:  Solving for h, Initial residual = 9.55761e-07, Final residual = 9.55761e-07, No Iterations 0
min/max(T) = 299.999, 900
GAMG:  Solving for p, Initial residual = 6.34036e-06, Final residual = 6.34036e-06, No Iterations 0
diagonal:  Solving for rho, Initial residual = 0, Final residual = 0, No Iterations 0
time step continuity errors : sum local = 1.03044e-09, global = 1.62416e-12, cumulative = -2.25626e-09
GAMG:  Solving for p, Initial residual = 6.34033e-06, Final residual = 6.34033e-06, No Iterations 0
diagonal:  Solving for rho, Initial residual = 0, Final residual = 0, No Iterations 0
time step continuity errors : sum local = 1.03044e-09, global = 1.62416e-12, cumulative = -2.25464e-09
smoothSolver:  Solving for epsilon, Initial residual = 2.33785e-06, Final residual = 2.33785e-06, No Iterations 0
smoothSolver:  Solving for k, Initial residual = 0.000258246, Final residual = 5.87228e-07, No Iterations 1
PIMPLE: Iteration 25
smoothSolver:  Solving for Ux, Initial residual = 9.24096e-05, Final residual = 1.61615e-07, No Iterations 1
smoothSolver:  Solving for Uy, Initial residual = 5.07189e-07, Final residual = 5.07189e-07, No Iterations 0
DILUPBiCGStab:  Solving for CH4, Initial residual = 1.61554e-06, Final residual = 2.57314e-09, No Iterations 1
DILUPBiCGStab:  Solving for O2, Initial residual = 1.58982e-06, Final residual = 2.56956e-09, No Iterations 1
DILUPBiCGStab:  Solving for CO2, Initial residual = 0, Final residual = 0, No Iterations 0
DILUPBiCGStab:  Solving for H2O, Initial residual = 0, Final residual = 0, No Iterations 0
smoothSolver:  Solving for h, Initial residual = 1.86703e-06, Final residual = 3.31562e-09, No Iterations 1
min/max(T) = 299.999, 900
GAMG:  Solving for p, Initial residual = 7.70577e-06, Final residual = 7.70577e-06, No Iterations 0
diagonal:  Solving for rho, Initial residual = 0, Final residual = 0, No Iterations 0
time step continuity errors : sum local = 1.25235e-09, global = 8.90182e-12, cumulative = -2.24574e-09
GAMG:  Solving for p, Initial residual = 7.70574e-06, Final residual = 7.70574e-06, No Iterations 0
diagonal:  Solving for rho, Initial residual = 0, Final residual = 0, No Iterations 0
time step continuity errors : sum local = 1.25234e-09, global = 8.90182e-12, cumulative = -2.23684e-09
smoothSolver:  Solving for epsilon, Initial residual = 2.38861e-06, Final residual = 2.38861e-06, No Iterations 0
smoothSolver:  Solving for k, Initial residual = 0.000246766, Final residual = 5.73463e-07, No Iterations 1
ExecutionTime = 2.29 s  ClockTime = 3 s

Courant Number mean: 2.0043e-06 max: 0.00595875
deltaT = 7.19986e-07
Time = 1.31998e-06

diagonal:  Solving for rho, Initial residual = 0, Final residual = 0, No Iterations 0
PIMPLE: Iteration 1
smoothSolver:  Solving for Ux, Initial residual = 0.369269, Final residual = 0.000539621, No Iterations 1
smoothSolver:  Solving for Uy, Initial residual = 0.0469141, Final residual = 2.26048e-05, No Iterations 1
DILUPBiCGStab:  Solving for CH4, Initial residual = 0.0386454, Final residual = 7.44322e-08, No Iterations 1
DILUPBiCGStab:  Solving for O2, Initial residual = 0.0386454, Final residual = 7.44323e-08, No Iterations 1
DILUPBiCGStab:  Solving for CO2, Initial residual = 0, Final residual = 0, No Iterations 0
DILUPBiCGStab:  Solving for H2O, Initial residual = 0, Final residual = 0, No Iterations 0
smoothSolver:  Solving for h, Initial residual = 0.134727, Final residual = 5.12077e-08, No Iterations 2
min/max(T) = 299.999, 900
GAMG:  Solving for p, Initial residual = 0.104017, Final residual = 8.32211e-06, No Iterations 1
diagonal:  Solving for rho, Initial residual = 0, Final residual = 0, No Iterations 0
time step continuity errors : sum local = 1.50616e-09, global = -1.20267e-09, cumulative = -3.43951e-09
GAMG:  Solving for p, Initial residual = 0.000123766, Final residual = 4.06895e-08, No Iterations 1
diagonal:  Solving for rho, Initial residual = 0, Final residual = 0, No Iterations 0
time step continuity errors : sum local = 1.42192e-11, global = 9.38819e-12, cumulative = -3.43012e-09
smoothSolver:  Solving for epsilon, Initial residual = 0.000427353, Final residual = 1.43608e-07, No Iterations 1
smoothSolver:  Solving for k, Initial residual = 0.172434, Final residual = 0.00032825, No Iterations 1
PIMPLE: Iteration 2
smoothSolver:  Solving for Ux, Initial residual = 0.0257134, Final residual = 7.6941e-05, No Iterations 1
smoothSolver:  Solving for Uy, Initial residual = 0.000148884, Final residual = 2.43771e-07, No Iterations 1
DILUPBiCGStab:  Solving for CH4, Initial residual = 0.00113331, Final residual = 7.55428e-07, No Iterations 1
DILUPBiCGStab:  Solving for O2, Initial residual = 0.00113332, Final residual = 7.55428e-07, No Iterations 1
DILUPBiCGStab:  Solving for CO2, Initial residual = 0, Final residual = 0, No Iterations 0
DILUPBiCGStab:  Solving for H2O, Initial residual = 0, Final residual = 0, No Iterations 0
smoothSolver:  Solving for h, Initial residual = 0.00309434, Final residual = 1.98237e-08, No Iterations 2
min/max(T) = 299.997, 900
GAMG:  Solving for p, Initial residual = 0.00145234, Final residual = 5.82063e-07, No Iterations 1
diagonal:  Solving for rho, Initial residual = 0, Final residual = 0, No Iterations 0
time step continuity errors : sum local = 2.04023e-10, global = 1.27302e-10, cumulative = -3.30282e-09
GAMG:  Solving for p, Initial residual = 1.70891e-05, Final residual = 8.67314e-09, No Iterations 1
diagonal:  Solving for rho, Initial residual = 0, Final residual = 0, No Iterations 0
time step continuity errors : sum local = 3.071e-12, global = 1.2728e-12, cumulative = -3.30155e-09
smoothSolver:  Solving for epsilon, Initial residual = 0.00026777, Final residual = 7.23198e-07, No Iterations 1
smoothSolver:  Solving for k, Initial residual = 0.0517921, Final residual = 0.000211682, No Iterations 1
PIMPLE: Iteration 3
smoothSolver:  Solving for Ux, Initial residual = 0.0230377, Final residual = 0.000114859, No Iterations 1
smoothSolver:  Solving for Uy, Initial residual = 0.000117433, Final residual = 5.60854e-07, No Iterations 1
DILUPBiCGStab:  Solving for CH4, Initial residual = 0.00050147, Final residual = 1.82247e-08, No Iterations 1
DILUPBiCGStab:  Solving for O2, Initial residual = 0.000501457, Final residual = 1.82247e-08, No Iterations 1
DILUPBiCGStab:  Solving for CO2, Initial residual = 0, Final residual = 0, No Iterations 0
DILUPBiCGStab:  Solving for H2O, Initial residual = 0, Final residual = 0, No Iterations 0
smoothSolver:  Solving for h, Initial residual = 0.000921511, Final residual = 2.11935e-08, No Iterations 2
min/max(T) = 299.997, 900
GAMG:  Solving for p, Initial residual = 0.000549067, Final residual = 3.33291e-07, No Iterations 1
diagonal:  Solving for rho, Initial residual = 0, Final residual = 0, No Iterations 0
time step continuity errors : sum local = 1.18011e-10, global = 4.04165e-11, cumulative = -3.26113e-09
GAMG:  Solving for p, Initial residual = 9.07311e-06, Final residual = 9.07311e-06, No Iterations 0
diagonal:  Solving for rho, Initial residual = 0, Final residual = 0, No Iterations 0
time step continuity errors : sum local = 3.22176e-09, global = -5.25417e-10, cumulative = -3.78655e-09
smoothSolver:  Solving for epsilon, Initial residual = 0.00048057, Final residual = 2.36689e-06, No Iterations 1
smoothSolver:  Solving for k, Initial residual = 0.0262901, Final residual = 0.000172772, No Iterations 1
PIMPLE: Iteration 4
smoothSolver:  Solving for Ux, Initial residual = 0.0115432, Final residual = 7.05444e-05, No Iterations 1
smoothSolver:  Solving for Uy, Initial residual = 5.93432e-05, Final residual = 3.45557e-07, No Iterations 1
DILUPBiCGStab:  Solving for CH4, Initial residual = 0.000244403, Final residual = 9.65422e-07, No Iterations 1
DILUPBiCGStab:  Solving for O2, Initial residual = 0.000244378, Final residual = 9.65422e-07, No Iterations 1
DILUPBiCGStab:  Solving for CO2, Initial residual = 0, Final residual = 0, No Iterations 0
DILUPBiCGStab:  Solving for H2O, Initial residual = 0, Final residual = 0, No Iterations 0
smoothSolver:  Solving for h, Initial residual = 0.000372876, Final residual = 1.69005e-08, No Iterations 2
min/max(T) = 299.997, 900
GAMG:  Solving for p, Initial residual = 0.000230456, Final residual = 1.73571e-07, No Iterations 1
diagonal:  Solving for rho, Initial residual = 0, Final residual = 0, No Iterations 0
time step continuity errors : sum local = 6.16359e-11, global = 1.52428e-11, cumulative = -3.77131e-09
GAMG:  Solving for p, Initial residual = 4.92167e-06, Final residual = 4.92167e-06, No Iterations 0
diagonal:  Solving for rho, Initial residual = 0, Final residual = 0, No Iterations 0
time step continuity errors : sum local = 1.74905e-09, global = -2.53084e-10, cumulative = -4.02439e-09
smoothSolver:  Solving for epsilon, Initial residual = 0.000580694, Final residual = 3.5705e-06, No Iterations 1
smoothSolver:  Solving for k, Initial residual = 0.00786121, Final residual = 6.68974e-05, No Iterations 1
PIMPLE: Iteration 5
smoothSolver:  Solving for Ux, Initial residual = 0.00907122, Final residual = 4.25873e-05, No Iterations 1
smoothSolver:  Solving for Uy, Initial residual = 3.93601e-05, Final residual = 1.7552e-07, No Iterations 1
DILUPBiCGStab:  Solving for CH4, Initial residual = 0.000206762, Final residual = 5.76242e-07, No Iterations 1
DILUPBiCGStab:  Solving for O2, Initial residual = 0.000206729, Final residual = 5.76233e-07, No Iterations 1
DILUPBiCGStab:  Solving for CO2, Initial residual = 0, Final residual = 0, No Iterations 0
DILUPBiCGStab:  Solving for H2O, Initial residual = 0, Final residual = 0, No Iterations 0
smoothSolver:  Solving for h, Initial residual = 6.23972e-05, Final residual = 1.31664e-07, No Iterations 1
min/max(T) = 299.997, 900
GAMG:  Solving for p, Initial residual = 7.24008e-05, Final residual = 5.54035e-08, No Iterations 1
diagonal:  Solving for rho, Initial residual = 0, Final residual = 0, No Iterations 0
time step continuity errors : sum local = 1.96892e-11, global = -2.36845e-12, cumulative = -4.02676e-09
GAMG:  Solving for p, Initial residual = 1.71592e-06, Final residual = 1.71592e-06, No Iterations 0
diagonal:  Solving for rho, Initial residual = 0, Final residual = 0, No Iterations 0
time step continuity errors : sum local = 6.09765e-10, global = 5.48881e-11, cumulative = -3.97187e-09
smoothSolver:  Solving for epsilon, Initial residual = 0.000306026, Final residual = 1.64155e-06, No Iterations 1
smoothSolver:  Solving for k, Initial residual = 0.00482808, Final residual = 3.11438e-05, No Iterations 1
PIMPLE: Iteration 6
smoothSolver:  Solving for Ux, Initial residual = 0.0202818, Final residual = 6.87771e-05, No Iterations 1
smoothSolver:  Solving for Uy, Initial residual = 9.18635e-05, Final residual = 3.02831e-07, No Iterations 1
DILUPBiCGStab:  Solving for CH4, Initial residual = 0.000446952, Final residual = 8.36695e-09, No Iterations 1
DILUPBiCGStab:  Solving for O2, Initial residual = 0.000446923, Final residual = 8.36695e-09, No Iterations 1
DILUPBiCGStab:  Solving for CO2, Initial residual = 0, Final residual = 0, No Iterations 0
DILUPBiCGStab:  Solving for H2O, Initial residual = 0, Final residual = 0, No Iterations 0
smoothSolver:  Solving for h, Initial residual = 0.000248661, Final residual = 7.14698e-07, No Iterations 1
min/max(T) = 299.997, 900
GAMG:  Solving for p, Initial residual = 0.00022627, Final residual = 2.11191e-07, No Iterations 1
diagonal:  Solving for rho, Initial residual = 0, Final residual = 0, No Iterations 0
time step continuity errors : sum local = 7.50464e-11, global = -1.44663e-11, cumulative = -3.98634e-09
GAMG:  Solving for p, Initial residual = 4.70016e-06, Final residual = 4.70016e-06, No Iterations 0
diagonal:  Solving for rho, Initial residual = 0, Final residual = 0, No Iterations 0
time step continuity errors : sum local = 1.66965e-09, global = 2.6954e-10, cumulative = -3.7168e-09
smoothSolver:  Solving for epsilon, Initial residual = 0.000240203, Final residual = 7.77398e-07, No Iterations 1
smoothSolver:  Solving for k, Initial residual = 0.0130774, Final residual = 5.95949e-05, No Iterations 1
PIMPLE: Iteration 7
smoothSolver:  Solving for Ux, Initial residual = 0.0180126, Final residual = 3.57537e-05, No Iterations 1
smoothSolver:  Solving for Uy, Initial residual = 8.57681e-05, Final residual = 1.69384e-07, No Iterations 1
DILUPBiCGStab:  Solving for CH4, Initial residual = 0.000383225, Final residual = 6.13713e-07, No Iterations 1
DILUPBiCGStab:  Solving for O2, Initial residual = 0.000383208, Final residual = 6.13711e-07, No Iterations 1
DILUPBiCGStab:  Solving for CO2, Initial residual = 0, Final residual = 0, No Iterations 0
DILUPBiCGStab:  Solving for H2O, Initial residual = 0, Final residual = 0, No Iterations 0
smoothSolver:  Solving for h, Initial residual = 0.000288221, Final residual = 5.01205e-07, No Iterations 1
min/max(T) = 299.997, 900
GAMG:  Solving for p, Initial residual = 0.000238277, Final residual = 2.28172e-07, No Iterations 1
diagonal:  Solving for rho, Initial residual = 0, Final residual = 0, No Iterations 0
time step continuity errors : sum local = 8.10519e-11, global = -1.58472e-11, cumulative = -3.73264e-09
GAMG:  Solving for p, Initial residual = 4.07379e-06, Final residual = 4.07379e-06, No Iterations 0
diagonal:  Solving for rho, Initial residual = 0, Final residual = 0, No Iterations 0
time step continuity errors : sum local = 1.4467e-09, global = 2.92127e-10, cumulative = -3.44052e-09
smoothSolver:  Solving for epsilon, Initial residual = 0.000512131, Final residual = 1.11657e-06, No Iterations 1
smoothSolver:  Solving for k, Initial residual = 0.0172364, Final residual = 4.73077e-05, No Iterations 1
PIMPLE: Iteration 8
smoothSolver:  Solving for Ux, Initial residual = 0.00931278, Final residual = 1.25356e-05, No Iterations 1
smoothSolver:  Solving for Uy, Initial residual = 4.74795e-05, Final residual = 6.58634e-08, No Iterations 1
DILUPBiCGStab:  Solving for CH4, Initial residual = 0.000204789, Final residual = 2.34377e-07, No Iterations 1
DILUPBiCGStab:  Solving for O2, Initial residual = 0.000204783, Final residual = 2.34376e-07, No Iterations 1
DILUPBiCGStab:  Solving for CO2, Initial residual = 0, Final residual = 0, No Iterations 0
DILUPBiCGStab:  Solving for H2O, Initial residual = 0, Final residual = 0, No Iterations 0
smoothSolver:  Solving for h, Initial residual = 0.000204505, Final residual = 2.4808e-07, No Iterations 1
min/max(T) = 299.997, 900
GAMG:  Solving for p, Initial residual = 0.000155351, Final residual = 1.46529e-07, No Iterations 1
diagonal:  Solving for rho, Initial residual = 0, Final residual = 0, No Iterations 0
time step continuity errors : sum local = 5.20353e-11, global = -9.36056e-12, cumulative = -3.44988e-09
GAMG:  Solving for p, Initial residual = 2.30292e-06, Final residual = 2.30292e-06, No Iterations 0
diagonal:  Solving for rho, Initial residual = 0, Final residual = 0, No Iterations 0
time step continuity errors : sum local = 8.17722e-10, global = 1.8342e-10, cumulative = -3.26646e-09
smoothSolver:  Solving for epsilon, Initial residual = 0.000422581, Final residual = 6.55176e-07, No Iterations 1
smoothSolver:  Solving for k, Initial residual = 0.0170365, Final residual = 3.15126e-05, No Iterations 1
PIMPLE: Iteration 9
smoothSolver:  Solving for Ux, Initial residual = 0.00308876, Final residual = 3.57559e-06, No Iterations 1
smoothSolver:  Solving for Uy, Initial residual = 2.23027e-05, Final residual = 2.633e-08, No Iterations 1
DILUPBiCGStab:  Solving for CH4, Initial residual = 6.74349e-05, Final residual = 6.78153e-08, No Iterations 1
DILUPBiCGStab:  Solving for O2, Initial residual = 6.74267e-05, Final residual = 6.78129e-08, No Iterations 1
DILUPBiCGStab:  Solving for CO2, Initial residual = 0, Final residual = 0, No Iterations 0
DILUPBiCGStab:  Solving for H2O, Initial residual = 0, Final residual = 0, No Iterations 0
smoothSolver:  Solving for h, Initial residual = 0.000101676, Final residual = 1.0643e-07, No Iterations 1
min/max(T) = 299.997, 900
GAMG:  Solving for p, Initial residual = 6.87897e-05, Final residual = 6.19324e-08, No Iterations 1
diagonal:  Solving for rho, Initial residual = 0, Final residual = 0, No Iterations 0
time step continuity errors : sum local = 2.19911e-11, global = -3.01015e-12, cumulative = -3.26947e-09
GAMG:  Solving for p, Initial residual = 9.6306e-07, Final residual = 9.6306e-07, No Iterations 0
diagonal:  Solving for rho, Initial residual = 0, Final residual = 0, No Iterations 0
time step continuity errors : sum local = 3.41962e-10, global = 7.44994e-11, cumulative = -3.19497e-09
smoothSolver:  Solving for epsilon, Initial residual = 0.000216303, Final residual = 3.00082e-07, No Iterations 1
smoothSolver:  Solving for k, Initial residual = 0.0114523, Final residual = 1.85716e-05, No Iterations 1
PIMPLE: Iteration 10
smoothSolver:  Solving for Ux, Initial residual = 0.000541527, Final residual = 5.68427e-07, No Iterations 1
smoothSolver:  Solving for Uy, Initial residual = 9.41898e-06, Final residual = 9.41898e-06, No Iterations 0
DILUPBiCGStab:  Solving for CH4, Initial residual = 1.07509e-05, Final residual = 1.03903e-08, No Iterations 1
DILUPBiCGStab:  Solving for O2, Initial residual = 1.07376e-05, Final residual = 1.03858e-08, No Iterations 1
DILUPBiCGStab:  Solving for CO2, Initial residual = 0, Final residual = 0, No Iterations 0
DILUPBiCGStab:  Solving for H2O, Initial residual = 0, Final residual = 0, No Iterations 0
smoothSolver:  Solving for h, Initial residual = 3.03959e-05, Final residual = 2.97739e-08, No Iterations 1
min/max(T) = 299.997, 900
GAMG:  Solving for p, Initial residual = 1.651e-05, Final residual = 1.34374e-08, No Iterations 1
diagonal:  Solving for rho, Initial residual = 0, Final residual = 0, No Iterations 0
time step continuity errors : sum local = 4.77146e-12, global = 7.32397e-14, cumulative = -3.19489e-09
GAMG:  Solving for p, Initial residual = 2.79224e-07, Final residual = 2.79224e-07, No Iterations 0
diagonal:  Solving for rho, Initial residual = 0, Final residual = 0, No Iterations 0
time step continuity errors : sum local = 9.91494e-11, global = 1.47973e-11, cumulative = -3.1801e-09
smoothSolver:  Solving for epsilon, Initial residual = 7.61238e-05, Final residual = 1.09173e-07, No Iterations 1
smoothSolver:  Solving for k, Initial residual = 0.00296591, Final residual = 5.27281e-06, No Iterations 1
PIMPLE: Iteration 11
smoothSolver:  Solving for Ux, Initial residual = 0.000994096, Final residual = 1.30002e-06, No Iterations 1
smoothSolver:  Solving for Uy, Initial residual = 5.06995e-06, Final residual = 5.06995e-06, No Iterations 0
DILUPBiCGStab:  Solving for CH4, Initial residual = 2.30859e-05, Final residual = 2.70233e-08, No Iterations 1
DILUPBiCGStab:  Solving for O2, Initial residual = 2.30719e-05, Final residual = 2.70232e-08, No Iterations 1
DILUPBiCGStab:  Solving for CO2, Initial residual = 0, Final residual = 0, No Iterations 0
DILUPBiCGStab:  Solving for H2O, Initial residual = 0, Final residual = 0, No Iterations 0
smoothSolver:  Solving for h, Initial residual = 1.03996e-05, Final residual = 1.17043e-08, No Iterations 1
min/max(T) = 299.997, 900
GAMG:  Solving for p, Initial residual = 1.0138e-05, Final residual = 7.6248e-09, No Iterations 1
diagonal:  Solving for rho, Initial residual = 0, Final residual = 0, No Iterations 0
time step continuity errors : sum local = 2.70761e-12, global = 9.98478e-13, cumulative = -3.1791e-09
GAMG:  Solving for p, Initial residual = 1.69808e-07, Final residual = 1.69808e-07, No Iterations 0
diagonal:  Solving for rho, Initial residual = 0, Final residual = 0, No Iterations 0
time step continuity errors : sum local = 6.02989e-11, global = -9.91457e-12, cumulative = -3.18901e-09
smoothSolver:  Solving for epsilon, Initial residual = 1.31446e-05, Final residual = 2.22052e-08, No Iterations 1
smoothSolver:  Solving for k, Initial residual = 0.00341025, Final residual = 4.90134e-06, No Iterations 1
PIMPLE: Iteration 12
smoothSolver:  Solving for Ux, Initial residual = 0.00120824, Final residual = 1.65775e-06, No Iterations 1
smoothSolver:  Solving for Uy, Initial residual = 5.55132e-06, Final residual = 5.55132e-06, No Iterations 0
DILUPBiCGStab:  Solving for CH4, Initial residual = 2.59274e-05, Final residual = 3.11975e-08, No Iterations 1
DILUPBiCGStab:  Solving for O2, Initial residual = 2.59131e-05, Final residual = 3.11975e-08, No Iterations 1
DILUPBiCGStab:  Solving for CO2, Initial residual = 0, Final residual = 0, No Iterations 0
DILUPBiCGStab:  Solving for H2O, Initial residual = 0, Final residual = 0, No Iterations 0
smoothSolver:  Solving for h, Initial residual = 1.77262e-05, Final residual = 2.32454e-08, No Iterations 1
min/max(T) = 299.997, 900
GAMG:  Solving for p, Initial residual = 1.52976e-05, Final residual = 1.40725e-08, No Iterations 1
diagonal:  Solving for rho, Initial residual = 0, Final residual = 0, No Iterations 0
time step continuity errors : sum local = 4.99729e-12, global = 1.11192e-12, cumulative = -3.1879e-09
GAMG:  Solving for p, Initial residual = 2.51372e-07, Final residual = 2.51372e-07, No Iterations 0
diagonal:  Solving for rho, Initial residual = 0, Final residual = 0, No Iterations 0
time step continuity errors : sum local = 8.92646e-11, global = -1.81395e-11, cumulative = -3.20604e-09
smoothSolver:  Solving for epsilon, Initial residual = 1.39606e-05, Final residual = 1.82263e-08, No Iterations 1
smoothSolver:  Solving for k, Initial residual = 0.00536151, Final residual = 9.05785e-06, No Iterations 1
PIMPLE: Iteration 13
smoothSolver:  Solving for Ux, Initial residual = 0.00107046, Final residual = 1.53409e-06, No Iterations 1
smoothSolver:  Solving for Uy, Initial residual = 5.40951e-06, Final residual = 5.40951e-06, No Iterations 0
DILUPBiCGStab:  Solving for CH4, Initial residual = 2.21487e-05, Final residual = 2.72713e-08, No Iterations 1
DILUPBiCGStab:  Solving for O2, Initial residual = 2.21339e-05, Final residual = 2.72712e-08, No Iterations 1
DILUPBiCGStab:  Solving for CO2, Initial residual = 0, Final residual = 0, No Iterations 0
DILUPBiCGStab:  Solving for H2O, Initial residual = 0, Final residual = 0, No Iterations 0
smoothSolver:  Solving for h, Initial residual = 1.7829e-05, Final residual = 2.40351e-08, No Iterations 1
min/max(T) = 299.997, 900
GAMG:  Solving for p, Initial residual = 1.4571e-05, Final residual = 1.39859e-08, No Iterations 1
diagonal:  Solving for rho, Initial residual = 0, Final residual = 0, No Iterations 0
time step continuity errors : sum local = 4.96667e-12, global = 9.26314e-13, cumulative = -3.20512e-09
GAMG:  Solving for p, Initial residual = 2.42926e-07, Final residual = 2.42926e-07, No Iterations 0
diagonal:  Solving for rho, Initial residual = 0, Final residual = 0, No Iterations 0
time step continuity errors : sum local = 8.62671e-11, global = -1.79e-11, cumulative = -3.22302e-09
smoothSolver:  Solving for epsilon, Initial residual = 2.44892e-05, Final residual = 3.71045e-08, No Iterations 1
smoothSolver:  Solving for k, Initial residual = 0.0046036, Final residual = 8.53943e-06, No Iterations 1
PIMPLE: Iteration 14
smoothSolver:  Solving for Ux, Initial residual = 0.000692759, Final residual = 1.01615e-06, No Iterations 1
smoothSolver:  Solving for Uy, Initial residual = 4.3091e-06, Final residual = 4.3091e-06, No Iterations 0
DILUPBiCGStab:  Solving for CH4, Initial residual = 1.35273e-05, Final residual = 1.68872e-08, No Iterations 1
DILUPBiCGStab:  Solving for O2, Initial residual = 1.35119e-05, Final residual = 1.68871e-08, No Iterations 1
DILUPBiCGStab:  Solving for CO2, Initial residual = 0, Final residual = 0, No Iterations 0
DILUPBiCGStab:  Solving for H2O, Initial residual = 0, Final residual = 0, No Iterations 0
smoothSolver:  Solving for h, Initial residual = 1.30574e-05, Final residual = 1.7672e-08, No Iterations 1
min/max(T) = 299.997, 900
GAMG:  Solving for p, Initial residual = 1.00727e-05, Final residual = 9.74233e-09, No Iterations 1
diagonal:  Solving for rho, Initial residual = 0, Final residual = 0, No Iterations 0
time step continuity errors : sum local = 3.45979e-12, global = 5.68459e-13, cumulative = -3.22245e-09
GAMG:  Solving for p, Initial residual = 1.65256e-07, Final residual = 1.65256e-07, No Iterations 0
diagonal:  Solving for rho, Initial residual = 0, Final residual = 0, No Iterations 0
time step continuity errors : sum local = 5.86858e-11, global = -1.24055e-11, cumulative = -3.23485e-09
smoothSolver:  Solving for epsilon, Initial residual = 2.4341e-05, Final residual = 3.95264e-08, No Iterations 1
smoothSolver:  Solving for k, Initial residual = 0.00276934, Final residual = 5.53162e-06, No Iterations 1
PIMPLE: Iteration 15
smoothSolver:  Solving for Ux, Initial residual = 0.000220401, Final residual = 3.25681e-07, No Iterations 1
smoothSolver:  Solving for Uy, Initial residual = 2.1696e-06, Final residual = 2.1696e-06, No Iterations 0
DILUPBiCGStab:  Solving for CH4, Initial residual = 3.41629e-06, Final residual = 4.17214e-09, No Iterations 1
DILUPBiCGStab:  Solving for O2, Initial residual = 3.40051e-06, Final residual = 4.17068e-09, No Iterations 1
DILUPBiCGStab:  Solving for CO2, Initial residual = 0, Final residual = 0, No Iterations 0
DILUPBiCGStab:  Solving for H2O, Initial residual = 0, Final residual = 0, No Iterations 0
smoothSolver:  Solving for h, Initial residual = 5.99591e-06, Final residual = 7.74169e-09, No Iterations 1
min/max(T) = 299.997, 900
GAMG:  Solving for p, Initial residual = 3.96386e-06, Final residual = 3.96386e-06, No Iterations 0
diagonal:  Solving for rho, Initial residual = 0, Final residual = 0, No Iterations 0
time step continuity errors : sum local = 1.40765e-09, global = -6.59872e-12, cumulative = -3.24145e-09
GAMG:  Solving for p, Initial residual = 3.96189e-06, Final residual = 3.96189e-06, No Iterations 0
diagonal:  Solving for rho, Initial residual = 0, Final residual = 0, No Iterations 0
time step continuity errors : sum local = 1.40694e-09, global = -6.59872e-12, cumulative = -3.24805e-09
smoothSolver:  Solving for epsilon, Initial residual = 1.64772e-05, Final residual = 2.81662e-08, No Iterations 1
smoothSolver:  Solving for k, Initial residual = 0.00090187, Final residual = 1.9853e-06, No Iterations 1
PIMPLE: Iteration 16
smoothSolver:  Solving for Ux, Initial residual = 0.000206502, Final residual = 2.78664e-07, No Iterations 1
smoothSolver:  Solving for Uy, Initial residual = 1.05134e-06, Final residual = 1.05134e-06, No Iterations 0
DILUPBiCGStab:  Solving for CH4, Initial residual = 5.07837e-06, Final residual = 5.93327e-09, No Iterations 1
DILUPBiCGStab:  Solving for O2, Initial residual = 5.06235e-06, Final residual = 5.93231e-09, No Iterations 1
DILUPBiCGStab:  Solving for CO2, Initial residual = 0, Final residual = 0, No Iterations 0
DILUPBiCGStab:  Solving for H2O, Initial residual = 0, Final residual = 0, No Iterations 0
smoothSolver:  Solving for h, Initial residual = 2.6568e-06, Final residual = 3.51424e-09, No Iterations 1
min/max(T) = 299.997, 900
GAMG:  Solving for p, Initial residual = 2.13508e-06, Final residual = 2.13508e-06, No Iterations 0
diagonal:  Solving for rho, Initial residual = 0, Final residual = 0, No Iterations 0
time step continuity errors : sum local = 7.58208e-10, global = -6.49875e-11, cumulative = -3.31304e-09
GAMG:  Solving for p, Initial residual = 2.13483e-06, Final residual = 2.13483e-06, No Iterations 0
diagonal:  Solving for rho, Initial residual = 0, Final residual = 0, No Iterations 0
time step continuity errors : sum local = 7.58119e-10, global = -6.49875e-11, cumulative = -3.37802e-09
smoothSolver:  Solving for epsilon, Initial residual = 5.86734e-06, Final residual = 5.86734e-06, No Iterations 0
smoothSolver:  Solving for k, Initial residual = 0.000470858, Final residual = 7.29627e-07, No Iterations 1
PIMPLE: Iteration 17
smoothSolver:  Solving for Ux, Initial residual = 0.000183891, Final residual = 2.15392e-07, No Iterations 1
smoothSolver:  Solving for Uy, Initial residual = 8.5882e-07, Final residual = 8.5882e-07, No Iterations 0
DILUPBiCGStab:  Solving for CH4, Initial residual = 4.29022e-06, Final residual = 4.04001e-09, No Iterations 1
DILUPBiCGStab:  Solving for O2, Initial residual = 4.27432e-06, Final residual = 4.03915e-09, No Iterations 1
DILUPBiCGStab:  Solving for CO2, Initial residual = 0, Final residual = 0, No Iterations 0
DILUPBiCGStab:  Solving for H2O, Initial residual = 0, Final residual = 0, No Iterations 0
smoothSolver:  Solving for h, Initial residual = 2.12694e-06, Final residual = 2.39103e-09, No Iterations 1
min/max(T) = 299.997, 900
GAMG:  Solving for p, Initial residual = 1.57413e-06, Final residual = 1.57413e-06, No Iterations 0
diagonal:  Solving for rho, Initial residual = 0, Final residual = 0, No Iterations 0
time step continuity errors : sum local = 5.59004e-10, global = -1.08959e-10, cumulative = -3.48698e-09
GAMG:  Solving for p, Initial residual = 1.57396e-06, Final residual = 1.57396e-06, No Iterations 0
diagonal:  Solving for rho, Initial residual = 0, Final residual = 0, No Iterations 0
time step continuity errors : sum local = 5.58943e-10, global = -1.08959e-10, cumulative = -3.59594e-09
smoothSolver:  Solving for epsilon, Initial residual = 2.94478e-06, Final residual = 2.94478e-06, No Iterations 0
smoothSolver:  Solving for k, Initial residual = 0.000602417, Final residual = 9.38278e-07, No Iterations 1
PIMPLE: Iteration 18
smoothSolver:  Solving for Ux, Initial residual = 0.000228526, Final residual = 2.76073e-07, No Iterations 1
smoothSolver:  Solving for Uy, Initial residual = 1.07685e-06, Final residual = 1.07685e-06, No Iterations 0
DILUPBiCGStab:  Solving for CH4, Initial residual = 5.27043e-06, Final residual = 5.01783e-09, No Iterations 1
DILUPBiCGStab:  Solving for O2, Initial residual = 5.25456e-06, Final residual = 5.0169e-09, No Iterations 1
DILUPBiCGStab:  Solving for CO2, Initial residual = 0, Final residual = 0, No Iterations 0
DILUPBiCGStab:  Solving for H2O, Initial residual = 0, Final residual = 0, No Iterations 0
smoothSolver:  Solving for h, Initial residual = 2.60734e-06, Final residual = 2.95132e-09, No Iterations 1
min/max(T) = 299.997, 900
GAMG:  Solving for p, Initial residual = 3.96713e-06, Final residual = 3.96713e-06, No Iterations 0
diagonal:  Solving for rho, Initial residual = 0, Final residual = 0, No Iterations 0
time step continuity errors : sum local = 1.40881e-09, global = -1.65507e-10, cumulative = -3.76145e-09
GAMG:  Solving for p, Initial residual = 3.96614e-06, Final residual = 3.96614e-06, No Iterations 0
diagonal:  Solving for rho, Initial residual = 0, Final residual = 0, No Iterations 0
time step continuity errors : sum local = 1.40845e-09, global = -1.65507e-10, cumulative = -3.92696e-09
smoothSolver:  Solving for epsilon, Initial residual = 2.44482e-06, Final residual = 2.44482e-06, No Iterations 0
smoothSolver:  Solving for k, Initial residual = 0.00077622, Final residual = 1.21324e-06, No Iterations 1
PIMPLE: Iteration 19
smoothSolver:  Solving for Ux, Initial residual = 0.000283679, Final residual = 3.43614e-07, No Iterations 1
smoothSolver:  Solving for Uy, Initial residual = 1.33597e-06, Final residual = 1.33597e-06, No Iterations 0
DILUPBiCGStab:  Solving for CH4, Initial residual = 6.5053e-06, Final residual = 6.26176e-09, No Iterations 1
DILUPBiCGStab:  Solving for O2, Initial residual = 6.48953e-06, Final residual = 6.2608e-09, No Iterations 1
DILUPBiCGStab:  Solving for CO2, Initial residual = 0, Final residual = 0, No Iterations 0
DILUPBiCGStab:  Solving for H2O, Initial residual = 0, Final residual = 0, No Iterations 0
smoothSolver:  Solving for h, Initial residual = 3.22373e-06, Final residual = 3.66712e-09, No Iterations 1
min/max(T) = 299.997, 900
GAMG:  Solving for p, Initial residual = 7.21395e-06, Final residual = 7.21395e-06, No Iterations 0
diagonal:  Solving for rho, Initial residual = 0, Final residual = 0, No Iterations 0
time step continuity errors : sum local = 2.56181e-09, global = -2.35548e-10, cumulative = -4.1625e-09
GAMG:  Solving for p, Initial residual = 7.21264e-06, Final residual = 7.21264e-06, No Iterations 0
diagonal:  Solving for rho, Initial residual = 0, Final residual = 0, No Iterations 0
time step continuity errors : sum local = 2.56135e-09, global = -2.35548e-10, cumulative = -4.39805e-09
smoothSolver:  Solving for epsilon, Initial residual = 6.05062e-06, Final residual = 6.05062e-06, No Iterations 0
smoothSolver:  Solving for k, Initial residual = 0.000986635, Final residual = 1.54899e-06, No Iterations 1
PIMPLE: Iteration 20
smoothSolver:  Solving for Ux, Initial residual = 0.000343876, Final residual = 4.18352e-07, No Iterations 1
smoothSolver:  Solving for Uy, Initial residual = 1.61664e-06, Final residual = 1.61664e-06, No Iterations 0
DILUPBiCGStab:  Solving for CH4, Initial residual = 7.8366e-06, Final residual = 7.66456e-09, No Iterations 1
DILUPBiCGStab:  Solving for O2, Initial residual = 7.82094e-06, Final residual = 7.66357e-09, No Iterations 1
DILUPBiCGStab:  Solving for CO2, Initial residual = 0, Final residual = 0, No Iterations 0
DILUPBiCGStab:  Solving for H2O, Initial residual = 0, Final residual = 0, No Iterations 0
smoothSolver:  Solving for h, Initial residual = 3.89284e-06, Final residual = 4.46679e-09, No Iterations 1
min/max(T) = 299.997, 900
GAMG:  Solving for p, Initial residual = 1.11468e-05, Final residual = 9.5829e-09, No Iterations 1
diagonal:  Solving for rho, Initial residual = 0, Final residual = 0, No Iterations 0
time step continuity errors : sum local = 3.4032e-12, global = -7.42881e-13, cumulative = -4.39879e-09
GAMG:  Solving for p, Initial residual = 1.98301e-07, Final residual = 1.98301e-07, No Iterations 0
diagonal:  Solving for rho, Initial residual = 0, Final residual = 0, No Iterations 0
time step continuity errors : sum local = 7.04189e-11, global = 1.28401e-11, cumulative = -4.38595e-09
smoothSolver:  Solving for epsilon, Initial residual = 1.23952e-05, Final residual = 1.28385e-08, No Iterations 1
smoothSolver:  Solving for k, Initial residual = 0.00126262, Final residual = 1.97928e-06, No Iterations 1
PIMPLE: Iteration 21
smoothSolver:  Solving for Ux, Initial residual = 0.000111337, Final residual = 1.98551e-07, No Iterations 1
smoothSolver:  Solving for Uy, Initial residual = 1.49894e-06, Final residual = 1.49894e-06, No Iterations 0
DILUPBiCGStab:  Solving for CH4, Initial residual = 1.84723e-06, Final residual = 2.67997e-09, No Iterations 1
DILUPBiCGStab:  Solving for O2, Initial residual = 1.83168e-06, Final residual = 2.67307e-09, No Iterations 1
DILUPBiCGStab:  Solving for CO2, Initial residual = 0, Final residual = 0, No Iterations 0
DILUPBiCGStab:  Solving for H2O, Initial residual = 0, Final residual = 0, No Iterations 0
smoothSolver:  Solving for h, Initial residual = 5.09263e-06, Final residual = 5.68878e-09, No Iterations 1
min/max(T) = 299.997, 900
GAMG:  Solving for p, Initial residual = 2.81239e-06, Final residual = 2.81239e-06, No Iterations 0
diagonal:  Solving for rho, Initial residual = 0, Final residual = 0, No Iterations 0
time step continuity errors : sum local = 9.9871e-10, global = -2.39047e-11, cumulative = -4.40986e-09
GAMG:  Solving for p, Initial residual = 2.81171e-06, Final residual = 2.81171e-06, No Iterations 0
diagonal:  Solving for rho, Initial residual = 0, Final residual = 0, No Iterations 0
time step continuity errors : sum local = 9.98469e-10, global = -2.39047e-11, cumulative = -4.43376e-09
smoothSolver:  Solving for epsilon, Initial residual = 7.54956e-06, Final residual = 7.54956e-06, No Iterations 0
smoothSolver:  Solving for k, Initial residual = 0.000473772, Final residual = 1.07965e-06, No Iterations 1
PIMPLE: Iteration 22
smoothSolver:  Solving for Ux, Initial residual = 0.000152301, Final residual = 2.65872e-07, No Iterations 1
smoothSolver:  Solving for Uy, Initial residual = 7.22334e-07, Final residual = 7.22334e-07, No Iterations 0
DILUPBiCGStab:  Solving for CH4, Initial residual = 2.87056e-06, Final residual = 4.9367e-09, No Iterations 1
DILUPBiCGStab:  Solving for O2, Initial residual = 2.85503e-06, Final residual = 4.93381e-09, No Iterations 1
DILUPBiCGStab:  Solving for CO2, Initial residual = 0, Final residual = 0, No Iterations 0
DILUPBiCGStab:  Solving for H2O, Initial residual = 0, Final residual = 0, No Iterations 0
smoothSolver:  Solving for h, Initial residual = 1.50264e-06, Final residual = 2.74845e-09, No Iterations 1
min/max(T) = 299.997, 900
GAMG:  Solving for p, Initial residual = 4.26812e-06, Final residual = 4.26812e-06, No Iterations 0
diagonal:  Solving for rho, Initial residual = 0, Final residual = 0, No Iterations 0
time step continuity errors : sum local = 1.51566e-09, global = -5.74983e-11, cumulative = -4.49126e-09
GAMG:  Solving for p, Initial residual = 4.26751e-06, Final residual = 4.26751e-06, No Iterations 0
diagonal:  Solving for rho, Initial residual = 0, Final residual = 0, No Iterations 0
time step continuity errors : sum local = 1.51544e-09, global = -5.74983e-11, cumulative = -4.54876e-09
smoothSolver:  Solving for epsilon, Initial residual = 1.02385e-05, Final residual = 1.5195e-08, No Iterations 1
smoothSolver:  Solving for k, Initial residual = 0.000571781, Final residual = 1.3237e-06, No Iterations 1
PIMPLE: Iteration 23
smoothSolver:  Solving for Ux, Initial residual = 0.000107618, Final residual = 7.78512e-08, No Iterations 1
smoothSolver:  Solving for Uy, Initial residual = 6.2363e-07, Final residual = 6.2363e-07, No Iterations 0
DILUPBiCGStab:  Solving for CH4, Initial residual = 3.10157e-06, Final residual = 1.90835e-09, No Iterations 1
DILUPBiCGStab:  Solving for O2, Initial residual = 3.08611e-06, Final residual = 1.90812e-09, No Iterations 1
DILUPBiCGStab:  Solving for CO2, Initial residual = 0, Final residual = 0, No Iterations 0
DILUPBiCGStab:  Solving for H2O, Initial residual = 0, Final residual = 0, No Iterations 0
smoothSolver:  Solving for h, Initial residual = 1.55752e-06, Final residual = 1.19328e-09, No Iterations 1
min/max(T) = 299.997, 900
GAMG:  Solving for p, Initial residual = 2.91075e-06, Final residual = 2.91075e-06, No Iterations 0
diagonal:  Solving for rho, Initial residual = 0, Final residual = 0, No Iterations 0
time step continuity errors : sum local = 1.03364e-09, global = -2.06421e-11, cumulative = -4.5694e-09
GAMG:  Solving for p, Initial residual = 2.91076e-06, Final residual = 2.91076e-06, No Iterations 0
diagonal:  Solving for rho, Initial residual = 0, Final residual = 0, No Iterations 0
time step continuity errors : sum local = 1.03364e-09, global = -2.06421e-11, cumulative = -4.59004e-09
smoothSolver:  Solving for epsilon, Initial residual = 3.3406e-06, Final residual = 3.3406e-06, No Iterations 0
smoothSolver:  Solving for k, Initial residual = 0.000278059, Final residual = 7.87669e-08, No Iterations 1
PIMPLE: Iteration 24
smoothSolver:  Solving for Ux, Initial residual = 8.87785e-05, Final residual = 2.53196e-08, No Iterations 1
smoothSolver:  Solving for Uy, Initial residual = 4.51933e-07, Final residual = 4.51933e-07, No Iterations 0
DILUPBiCGStab:  Solving for CH4, Initial residual = 2.54262e-06, Final residual = 4.60611e-10, No Iterations 1
[...]
diagonal:  Solving for rho, Initial residual = 0, Final residual = 0, No Iterations 0
time step continuity errors : sum local = 4.44092e-08, global = -6.91186e-11, cumulative = 2.76212e-07
GAMG:  Solving for p, Initial residual = 9.39027e-06, Final residual = 9.39027e-06, No Iterations 0
diagonal:  Solving for rho, Initial residual = 0, Final residual = 0, No Iterations 0
time step continuity errors : sum local = 4.43648e-08, global = -6.91186e-11, cumulative = 2.76143e-07
smoothSolver:  Solving for epsilon, Initial residual = 6.89188e-06, Final residual = 6.89188e-06, No Iterations 0
smoothSolver:  Solving for k, Initial residual = 3.59433e-06, Final residual = 3.59433e-06, No Iterations 0
PIMPLE: Iteration 19
smoothSolver:  Solving for Ux, Initial residual = 3.16733e-07, Final residual = 3.16733e-07, No Iterations 0
smoothSolver:  Solving for Uy, Initial residual = 4.93769e-08, Final residual = 4.93769e-08, No Iterations 0
DILUPBiCGStab:  Solving for CH4, Initial residual = 8.10764e-07, Final residual = 8.10764e-07, No Iterations 0
DILUPBiCGStab:  Solving for O2, Initial residual = 7.59281e-07, Final residual = 7.59281e-07, No Iterations 0
DILUPBiCGStab:  Solving for CO2, Initial residual = 0, Final residual = 0, No Iterations 0
DILUPBiCGStab:  Solving for H2O, Initial residual = 0, Final residual = 0, No Iterations 0
smoothSolver:  Solving for h, Initial residual = 1.18913e-07, Final residual = 1.18913e-07, No Iterations 0
min/max(T) = 300, 900
GAMG:  Solving for p, Initial residual = 9.40431e-06, Final residual = 9.40431e-06, No Iterations 0
diagonal:  Solving for rho, Initial residual = 0, Final residual = 0, No Iterations 0
time step continuity errors : sum local = 4.44312e-08, global = -6.91186e-11, cumulative = 2.76074e-07
GAMG:  Solving for p, Initial residual = 9.40206e-06, Final residual = 9.40206e-06, No Iterations 0
diagonal:  Solving for rho, Initial residual = 0, Final residual = 0, No Iterations 0
time step continuity errors : sum local = 4.44205e-08, global = -6.91186e-11, cumulative = 2.76005e-07
smoothSolver:  Solving for epsilon, Initial residual = 6.89236e-06, Final residual = 6.89236e-06, No Iterations 0
smoothSolver:  Solving for k, Initial residual = 3.58739e-06, Final residual = 3.58739e-06, No Iterations 0
PIMPLE: Iteration 20
smoothSolver:  Solving for Ux, Initial residual = 6.69147e-08, Final residual = 6.69147e-08, No Iterations 0
smoothSolver:  Solving for Uy, Initial residual = 1.3279e-08, Final residual = 1.3279e-08, No Iterations 0
DILUPBiCGStab:  Solving for CH4, Initial residual = 8.10761e-07, Final residual = 8.10761e-07, No Iterations 0
DILUPBiCGStab:  Solving for O2, Initial residual = 7.59278e-07, Final residual = 7.59278e-07, No Iterations 0
DILUPBiCGStab:  Solving for CO2, Initial residual = 0, Final residual = 0, No Iterations 0
DILUPBiCGStab:  Solving for H2O, Initial residual = 0, Final residual = 0, No Iterations 0
smoothSolver:  Solving for h, Initial residual = 1.18904e-07, Final residual = 1.18904e-07, No Iterations 0
min/max(T) = 300, 900
GAMG:  Solving for p, Initial residual = 9.40205e-06, Final residual = 9.40205e-06, No Iterations 0
diagonal:  Solving for rho, Initial residual = 0, Final residual = 0, No Iterations 0
time step continuity errors : sum local = 4.44205e-08, global = -6.91186e-11, cumulative = 2.75935e-07
GAMG:  Solving for p, Initial residual = 9.40128e-06, Final residual = 9.40128e-06, No Iterations 0
diagonal:  Solving for rho, Initial residual = 0, Final residual = 0, No Iterations 0
time step continuity errors : sum local = 4.44168e-08, global = -6.91186e-11, cumulative = 2.75866e-07
smoothSolver:  Solving for epsilon, Initial residual = 6.8924e-06, Final residual = 6.8924e-06, No Iterations 0
smoothSolver:  Solving for k, Initial residual = 3.58911e-06, Final residual = 3.58911e-06, No Iterations 0
PIMPLE: Iteration 21
smoothSolver:  Solving for Ux, Initial residual = 1.86709e-08, Final residual = 1.86709e-08, No Iterations 0
smoothSolver:  Solving for Uy, Initial residual = 3.86929e-09, Final residual = 3.86929e-09, No Iterations 0
DILUPBiCGStab:  Solving for CH4, Initial residual = 8.10762e-07, Final residual = 8.10762e-07, No Iterations 0
DILUPBiCGStab:  Solving for O2, Initial residual = 7.59279e-07, Final residual = 7.59279e-07, No Iterations 0
DILUPBiCGStab:  Solving for CO2, Initial residual = 0, Final residual = 0, No Iterations 0
DILUPBiCGStab:  Solving for H2O, Initial residual = 0, Final residual = 0, No Iterations 0
smoothSolver:  Solving for h, Initial residual = 1.18903e-07, Final residual = 1.18903e-07, No Iterations 0
min/max(T) = 300, 900
GAMG:  Solving for p, Initial residual = 9.40241e-06, Final residual = 9.40241e-06, No Iterations 0
diagonal:  Solving for rho, Initial residual = 0, Final residual = 0, No Iterations 0
time step continuity errors : sum local = 4.44222e-08, global = -6.91186e-11, cumulative = 2.75797e-07
GAMG:  Solving for p, Initial residual = 9.4022e-06, Final residual = 9.4022e-06, No Iterations 0
diagonal:  Solving for rho, Initial residual = 0, Final residual = 0, No Iterations 0
time step continuity errors : sum local = 4.44212e-08, global = -6.91186e-11, cumulative = 2.75728e-07
smoothSolver:  Solving for epsilon, Initial residual = 6.89243e-06, Final residual = 6.89243e-06, No Iterations 0
smoothSolver:  Solving for k, Initial residual = 3.58891e-06, Final residual = 3.58891e-06, No Iterations 0
PIMPLE: Iteration 22
smoothSolver:  Solving for Ux, Initial residual = 4.36856e-09, Final residual = 4.36856e-09, No Iterations 0
smoothSolver:  Solving for Uy, Initial residual = 1.16388e-09, Final residual = 1.16388e-09, No Iterations 0
DILUPBiCGStab:  Solving for CH4, Initial residual = 8.10762e-07, Final residual = 8.10762e-07, No Iterations 0
DILUPBiCGStab:  Solving for O2, Initial residual = 7.59279e-07, Final residual = 7.59279e-07, No Iterations 0
DILUPBiCGStab:  Solving for CO2, Initial residual = 0, Final residual = 0, No Iterations 0
DILUPBiCGStab:  Solving for H2O, Initial residual = 0, Final residual = 0, No Iterations 0
smoothSolver:  Solving for h, Initial residual = 1.18902e-07, Final residual = 1.18902e-07, No Iterations 0
min/max(T) = 300, 900
GAMG:  Solving for p, Initial residual = 9.40232e-06, Final residual = 9.40232e-06, No Iterations 0
diagonal:  Solving for rho, Initial residual = 0, Final residual = 0, No Iterations 0
time step continuity errors : sum local = 4.44218e-08, global = -6.91186e-11, cumulative = 2.75659e-07
GAMG:  Solving for p, Initial residual = 9.40225e-06, Final residual = 9.40225e-06, No Iterations 0
diagonal:  Solving for rho, Initial residual = 0, Final residual = 0, No Iterations 0
time step continuity errors : sum local = 4.44214e-08, global = -6.91186e-11, cumulative = 2.7559e-07
smoothSolver:  Solving for epsilon, Initial residual = 6.89243e-06, Final residual = 6.89243e-06, No Iterations 0
smoothSolver:  Solving for k, Initial residual = 3.58905e-06, Final residual = 3.58905e-06, No Iterations 0
PIMPLE: Iteration 23
smoothSolver:  Solving for Ux, Initial residual = 1.38447e-09, Final residual = 1.38447e-09, No Iterations 0
smoothSolver:  Solving for Uy, Initial residual = 3.56082e-10, Final residual = 3.56082e-10, No Iterations 0
DILUPBiCGStab:  Solving for CH4, Initial residual = 8.10762e-07, Final residual = 8.10762e-07, No Iterations 0
DILUPBiCGStab:  Solving for O2, Initial residual = 7.59279e-07, Final residual = 7.59279e-07, No Iterations 0
DILUPBiCGStab:  Solving for CO2, Initial residual = 0, Final residual = 0, No Iterations 0
DILUPBiCGStab:  Solving for H2O, Initial residual = 0, Final residual = 0, No Iterations 0
smoothSolver:  Solving for h, Initial residual = 1.18902e-07, Final residual = 1.18902e-07, No Iterations 0
min/max(T) = 300, 900
GAMG:  Solving for p, Initial residual = 9.40234e-06, Final residual = 9.40234e-06, No Iterations 0
diagonal:  Solving for rho, Initial residual = 0, Final residual = 0, No Iterations 0
time step continuity errors : sum local = 4.44219e-08, global = -6.91186e-11, cumulative = 2.75521e-07
GAMG:  Solving for p, Initial residual = 9.40232e-06, Final residual = 9.40232e-06, No Iterations 0
diagonal:  Solving for rho, Initial residual = 0, Final residual = 0, No Iterations 0
time step continuity errors : sum local = 4.44218e-08, global = -6.91186e-11, cumulative = 2.75452e-07
smoothSolver:  Solving for epsilon, Initial residual = 6.89243e-06, Final residual = 6.89243e-06, No Iterations 0
smoothSolver:  Solving for k, Initial residual = 3.58905e-06, Final residual = 3.58905e-06, No Iterations 0
PIMPLE: Iteration 24
smoothSolver:  Solving for Ux, Initial residual = 3.71075e-10, Final residual = 3.71075e-10, No Iterations 0
smoothSolver:  Solving for Uy, Initial residual = 1.1013e-10, Final residual = 1.1013e-10, No Iterations 0
DILUPBiCGStab:  Solving for CH4, Initial residual = 8.10762e-07, Final residual = 8.10762e-07, No Iterations 0
DILUPBiCGStab:  Solving for O2, Initial residual = 7.59279e-07, Final residual = 7.59279e-07, No Iterations 0
DILUPBiCGStab:  Solving for CO2, Initial residual = 0, Final residual = 0, No Iterations 0
DILUPBiCGStab:  Solving for H2O, Initial residual = 0, Final residual = 0, No Iterations 0
smoothSolver:  Solving for h, Initial residual = 1.18902e-07, Final residual = 1.18902e-07, No Iterations 0
min/max(T) = 300, 900
GAMG:  Solving for p, Initial residual = 9.40234e-06, Final residual = 9.40234e-06, No Iterations 0
diagonal:  Solving for rho, Initial residual = 0, Final residual = 0, No Iterations 0
time step continuity errors : sum local = 4.44219e-08, global = -6.91186e-11, cumulative = 2.75383e-07
GAMG:  Solving for p, Initial residual = 9.40233e-06, Final residual = 9.40233e-06, No Iterations 0
diagonal:  Solving for rho, Initial residual = 0, Final residual = 0, No Iterations 0
time step continuity errors : sum local = 4.44218e-08, global = -6.91186e-11, cumulative = 2.75313e-07
smoothSolver:  Solving for epsilon, Initial residual = 6.89243e-06, Final residual = 6.89243e-06, No Iterations 0
smoothSolver:  Solving for k, Initial residual = 3.58907e-06, Final residual = 3.58907e-06, No Iterations 0
PIMPLE: Iteration 25
smoothSolver:  Solving for Ux, Initial residual = 1.2008e-10, Final residual = 1.2008e-10, No Iterations 0
smoothSolver:  Solving for Uy, Initial residual = 3.42872e-11, Final residual = 3.42872e-11, No Iterations 0
DILUPBiCGStab:  Solving for CH4, Initial residual = 8.10762e-07, Final residual = 8.10762e-07, No Iterations 0
DILUPBiCGStab:  Solving for O2, Initial residual = 7.59279e-07, Final residual = 7.59279e-07, No Iterations 0
DILUPBiCGStab:  Solving for CO2, Initial residual = 0, Final residual = 0, No Iterations 0
DILUPBiCGStab:  Solving for H2O, Initial residual = 0, Final residual = 0, No Iterations 0
smoothSolver:  Solving for h, Initial residual = 1.18902e-07, Final residual = 1.18902e-07, No Iterations 0
min/max(T) = 300, 900
GAMG:  Solving for p, Initial residual = 9.40234e-06, Final residual = 9.40234e-06, No Iterations 0
diagonal:  Solving for rho, Initial residual = 0, Final residual = 0, No Iterations 0
time step continuity errors : sum local = 4.44219e-08, global = -6.91186e-11, cumulative = 2.75244e-07
GAMG:  Solving for p, Initial residual = 9.40234e-06, Final residual = 9.40234e-06, No Iterations 0
diagonal:  Solving for rho, Initial residual = 0, Final residual = 0, No Iterations 0
time step continuity errors : sum local = 4.44219e-08, global = -6.91186e-11, cumulative = 2.75175e-07
smoothSolver:  Solving for epsilon, Initial residual = 6.89243e-06, Final residual = 6.89243e-06, No Iterations 0
smoothSolver:  Solving for k, Initial residual = 3.58907e-06, Final residual = 3.58907e-06, No Iterations 0
ExecutionTime = 19.64 s  ClockTime = 21 s

Courant Number mean: 0.000544673 max: 0.235645
deltaT = 7.69988e-06
Time = 4.32103e-05

diagonal:  Solving for rho, Initial residual = 0, Final residual = 0, No Iterations 0
PIMPLE: Iteration 1
smoothSolver:  Solving for Ux, Initial residual = 0.129255, Final residual = 0.00160845, No Iterations 1
smoothSolver:  Solving for Uy, Initial residual = 0.0530032, Final residual = 0.000300261, No Iterations 1
DILUPBiCGStab:  Solving for CH4, Initial residual = 0.00480217, Final residual = 3.4323e-07, No Iterations 2
DILUPBiCGStab:  Solving for O2, Initial residual = 0.00480231, Final residual = 3.4338e-07, No Iterations 2
DILUPBiCGStab:  Solving for CO2, Initial residual = 0, Final residual = 0, No Iterations 0
DILUPBiCGStab:  Solving for H2O, Initial residual = 0, Final residual = 0, No Iterations 0
smoothSolver:  Solving for h, Initial residual = 0.0391869, Final residual = 2.86257e-07, No Iterations 3
min/max(T) = 300, 900
GAMG:  Solving for p, Initial residual = 0.0489117, Final residual = 0.000256795, No Iterations 2
diagonal:  Solving for rho, Initial residual = 0, Final residual = 0, No Iterations 0
time step continuity errors : sum local = 1.25276e-06, global = 4.1303e-08, cumulative = 3.16478e-07
GAMG:  Solving for p, Initial residual = 0.00113299, Final residual = 4.62788e-06, No Iterations 3
diagonal:  Solving for rho, Initial residual = 0, Final residual = 0, No Iterations 0
time step continuity errors : sum local = 2.4034e-08, global = -1.72054e-10, cumulative = 3.16306e-07
smoothSolver:  Solving for epsilon, Initial residual = 0.0066777, Final residual = 0.000120973, No Iterations 1
bounding epsilon, min: -0.99994 max: 20338.1 average: 56.066
smoothSolver:  Solving for k, Initial residual = 0.00805034, Final residual = 0.000148585, No Iterations 1
PIMPLE: Iteration 2
smoothSolver:  Solving for Ux, Initial residual = 0.00139895, Final residual = 2.32985e-05, No Iterations 1
smoothSolver:  Solving for Uy, Initial residual = 0.00021317, Final residual = 4.15084e-06, No Iterations 1
DILUPBiCGStab:  Solving for CH4, Initial residual = 0.000471214, Final residual = 3.26015e-07, No Iterations 1
DILUPBiCGStab:  Solving for O2, Initial residual = 0.000471242, Final residual = 3.25969e-07, No Iterations 1
DILUPBiCGStab:  Solving for CO2, Initial residual = 0, Final residual = 0, No Iterations 0
DILUPBiCGStab:  Solving for H2O, Initial residual = 0, Final residual = 0, No Iterations 0
smoothSolver:  Solving for h, Initial residual = 0.00358057, Final residual = 9.94911e-07, No Iterations 2
min/max(T) = 300, 900
GAMG:  Solving for p, Initial residual = 0.00285822, Final residual = 2.70819e-05, No Iterations 2
diagonal:  Solving for rho, Initial residual = 0, Final residual = 0, No Iterations 0
time step continuity errors : sum local = 1.40537e-07, global = -6.75727e-09, cumulative = 3.09549e-07
GAMG:  Solving for p, Initial residual = 0.000161296, Final residual = 2.45532e-06, No Iterations 2
diagonal:  Solving for rho, Initial residual = 0, Final residual = 0, No Iterations 0
time step continuity errors : sum local = 1.26231e-08, global = -3.7793e-10, cumulative = 3.09171e-07
smoothSolver:  Solving for epsilon, Initial residual = 0.000754674, Final residual = 1.42903e-05, No Iterations 1
bounding epsilon, min: -5.32931 max: 21127.2 average: 57.9778
smoothSolver:  Solving for k, Initial residual = 0.000600361, Final residual = 1.25717e-05, No Iterations 1
PIMPLE: Iteration 3
smoothSolver:  Solving for Ux, Initial residual = 0.00113223, Final residual = 3.50326e-05, No Iterations 2
smoothSolver:  Solving for Uy, Initial residual = 0.000151029, Final residual = 4.2806e-06, No Iterations 2
DILUPBiCGStab:  Solving for CH4, Initial residual = 4.82528e-05, Final residual = 1.87294e-07, No Iterations 1
DILUPBiCGStab:  Solving for O2, Initial residual = 4.72644e-05, Final residual = 2.02769e-07, No Iterations 1
DILUPBiCGStab:  Solving for CO2, Initial residual = 0, Final residual = 0, No Iterations 0
DILUPBiCGStab:  Solving for H2O, Initial residual = 0, Final residual = 0, No Iterations 0
smoothSolver:  Solving for h, Initial residual = 0.00086191, Final residual = 6.67697e-07, No Iterations 2
min/max(T) = 300, 900
GAMG:  Solving for p, Initial residual = 0.000756227, Final residual = 4.96483e-06, No Iterations 2
diagonal:  Solving for rho, Initial residual = 0, Final residual = 0, No Iterations 0
time step continuity errors : sum local = 2.55186e-08, global = -1.71762e-09, cumulative = 3.07453e-07
GAMG:  Solving for p, Initial residual = 7.37918e-05, Final residual = 6.40075e-06, No Iterations 1
diagonal:  Solving for rho, Initial residual = 0, Final residual = 0, No Iterations 0
time step continuity errors : sum local = 3.28114e-08, global = -1.51996e-10, cumulative = 3.07301e-07
smoothSolver:  Solving for epsilon, Initial residual = 0.000154744, Final residual = 7.81494e-06, No Iterations 1
bounding epsilon, min: -13.0853 max: 21216.7 average: 58.0222
smoothSolver:  Solving for k, Initial residual = 0.000242733, Final residual = 2.22761e-05, No Iterations 1
PIMPLE: Iteration 4
smoothSolver:  Solving for Ux, Initial residual = 0.370559, Final residual = 0.0175284, No Iterations 2
smoothSolver:  Solving for Uy, Initial residual = 0.777253, Final residual = 0.0409701, No Iterations 2
DILUPBiCGStab:  Solving for CH4, Initial residual = 1, Final residual = 4.98743e-16, No Iterations 2
DILUPBiCGStab:  Solving for O2, Initial residual = 0.508014, Final residual = 2.08189e-12, No Iterations 2
DILUPBiCGStab:  Solving for CO2, Initial residual = 0, Final residual = 0, No Iterations 0
DILUPBiCGStab:  Solving for H2O, Initial residual = 0, Final residual = 0, No Iterations 0
smoothSolver:  Solving for h, Initial residual = 0.312355, Final residual = 8.63673e-07, No Iterations 9
min/max(T) = 300, 900
[1] #0  Foam::error::printStack(Foam::Ostream&) at ??:?
[1] #1  Foam::sigFpe::sigHandler(int) at ??:?
[1] #2  ? in "/lib/x86_64-linux-gnu/libc.so.6"
[1] #3  Foam::divide(Foam::Field<double>&, double const&, Foam::UList<double> const&) at ??:?
[1] #4  Foam::tmp<Foam::GeometricField<double, Foam::fvPatchField, Foam::volMesh> > Foam::operator/<Foam::fvPatchField, Foam::volMesh>(Foam::dimensioned<double> const&, Foam::tmp<Foam::GeometricField<double, Foam::fvPatchField, Foam::volMesh> > const&) in "/home/student/OpenFOAM/OpenFOAM-8/platforms/linux64GccDPInt32Opt/bin/reactingFoam"
[1] #5  ? in "/home/student/OpenFOAM/OpenFOAM-8/platforms/linux64GccDPInt32Opt/bin/reactingFoam"
[1] #6  __libc_start_main in "/lib/x86_64-linux-gnu/libc.so.6"
[1] #7  ? in "/home/student/OpenFOAM/OpenFOAM-8/platforms/linux64GccDPInt32Opt/bin/reactingFoam"
[b183688884af:00200] *** Process received signal ***
[b183688884af:00200] Signal: Floating point exception (8)
[b183688884af:00200] Signal code:  (-6)
[b183688884af:00200] Failing at address: 0x3e8000000c8
[b183688884af:00200] [ 0] /lib/x86_64-linux-gnu/libc.so.6(+0x46210)[0x7fd52dd9c210]
[b183688884af:00200] [ 1] /lib/x86_64-linux-gnu/libc.so.6(gsignal+0xcb)[0x7fd52dd9c18b]
[b183688884af:00200] [ 2] /lib/x86_64-linux-gnu/libc.so.6(+0x46210)[0x7fd52dd9c210]
[b183688884af:00200] [ 3] /home/student/OpenFOAM/OpenFOAM-8/platforms/linux64GccDPInt32Opt/lib/libOpenFOAM.so(_ZN4Foam6divideERNS_5FieldIdEERKdRKNS_5UListIdEE+0xaf)[0x7fd52e9b034f]
[b183688884af:00200] [ 4] reactingFoam(_ZN4FoamdvINS_12fvPatchFieldENS_7volMeshEEENS_3tmpINS_14GeometricFieldIdT_T0_EEEERKNS_11dimensionedIdEERKS8_+0x2c7)[0x55bb29340ee7]
[b183688884af:00200] [ 5] reactingFoam(+0x36058)[0x55bb292dc058]
[b183688884af:00200] [ 6] /lib/x86_64-linux-gnu/libc.so.6(__libc_start_main+0xf3)[0x7fd52dd7d0b3]
[b183688884af:00200] [ 7] reactingFoam(+0x38d3e)[0x55bb292ded3e]
[b183688884af:00200] *** End of error message ***
--------------------------------------------------------------------------
Primary job  terminated normally, but 1 process returned
a non-zero exit code. Per user-direction, the job has been aborted.
--------------------------------------------------------------------------
--------------------------------------------------------------------------
mpirun noticed that process rank 1 with PID 0 on node b183688884af exited on signal 8 (Floating point exception).
--------------------------------------------------------------------------
