/*---------------------------------------------------------------------------*\
  =========                 |
  \\      /  F ield         | OpenFOAM: The Open Source CFD Toolbox
   \\    /   O peration     | Website:  https://openfoam.org
    \\  /    A nd           | Version:  8
     \\/     M anipulation  |
\*---------------------------------------------------------------------------*/
Build  : 8-9b73cf21a682
Exec   : renumberMesh -overwrite
Date   : Dec 28 2020
Time   : 17:40:29
Host   : "b183688884af"
PID    : 150
I/O    : uncollated
Case   : /home/student/OpenFOAM/student-8/run/Shared_CTTP/testAme/labs/lab7/assignment4/reactingFoam/initialConditions
nProcs : 1
sigFpe : Enabling floating point exception trapping (FOAM_SIGFPE).
fileModificationChecking : Monitoring run-time modified files using timeStampMaster (fileModificationSkew 10)
allowSystemOperations : Allowing user-supplied system call operations

// * * * * * * * * * * * * * * * * * * * * * * * * * * * * * * * * * * * * * //
Create time

Create mesh for time = 0

Mesh size: 15677
Before renumbering :
    band           : 5195
    profile        : 1.69754e+06

Using default renumberMethod.

Selecting renumberMethod CuthillMcKee

Reading geometric fields

Reading volScalarField alphat
Reading volScalarField nut
Reading volScalarField N2
Reading volScalarField O2
Reading volScalarField p
Reading volScalarField CH4
Reading volScalarField T
Reading volScalarField Ydefault
Reading volScalarField k
Reading volScalarField epsilon
Reading volScalarField yPlus
Reading volVectorField U

After renumbering :
    band           : 121
    profile        : 1.31771e+06

Writing mesh to "constant"

End

