Invalid MIT-MAGIC-COOKIE-1 key/*---------------------------------------------------------------------------*\
  =========                 |
  \\      /  F ield         | OpenFOAM: The Open Source CFD Toolbox
   \\    /   O peration     | Website:  https://openfoam.org
    \\  /    A nd           | Version:  8
     \\/     M anipulation  |
\*---------------------------------------------------------------------------*/
Build  : 8
Exec   : checkMesh -parallel
Date   : Dec 28 2020
Time   : 18:28:25
Host   : "edo20-HP-Pavilion-Notebook"
PID    : 290306
I/O    : uncollated
Case   : /home/edo20/Piscaglia/Shared_docker_folder/Shared_CTTP/testEdo/3D/combustorMesh
nProcs : 4
Slaves : 
3
(
"edo20-HP-Pavilion-Notebook.290307"
"edo20-HP-Pavilion-Notebook.290308"
"edo20-HP-Pavilion-Notebook.290309"
)

Pstream initialized with:
    floatTransfer      : 0
    nProcsSimpleSum    : 0
    commsType          : nonBlocking
    polling iterations : 0
sigFpe : Enabling floating point exception trapping (FOAM_SIGFPE).
fileModificationChecking : Monitoring run-time modified files using timeStampMaster (fileModificationSkew 10)
allowSystemOperations : Allowing user-supplied system call operations

// * * * * * * * * * * * * * * * * * * * * * * * * * * * * * * * * * * * * * //
Create time

Create polyMesh for time = 1

Time = 1

Mesh stats
    points:           1161474
    faces:            3168472
    internal faces:   3008512
    cells:            1005933
    faces per cell:   6.14055
    boundary patches: 12
    point zones:      0
    face zones:       0
    cell zones:       0

Overall number of cells of each type:
    hexahedra:     956248
    prisms:        0
    wedges:        0
    pyramids:      0
    tet wedges:    0
    tetrahedra:    0
    polyhedra:     49685
    Breakdown of polyhedra by number of faces:
        faces   number of cells
            6   13785
            8   544
            9   24100
           10   224
           11   180
           12   10487
           13   4
           15   360
           18   1

Checking topology...
    Boundary definition OK.
    Cell to face addressing OK.
    Point usage OK.
    Upper triangular ordering OK.
    Face vertices OK.
    Number of regions: 1 (OK).

Checking basic patch addressing...
                   Patch    Faces   Points
              outerWalls     5760     6292
                  outlet     1392     1552
                   inlet      720      820
           splitterFront    27692    29584
           splitterRight     1728     1854
            splitterRear    29256    31290
            splitterLeft     1728     1854
          splitterBottom     5262     6256
             splitterTop     5262     6258
    combustor_outerWalls        0        0

Checking geometry...
    Overall domain bounding box (-0.12 -0.3 -0.12) (0.12 0.5 0.12)
    Mesh has 3 geometric (non-empty/wedge) directions (1 1 1)
    Mesh has 3 solution (non-empty) directions (1 1 1)
    Boundary openness (-7.7917e-16 -4.67973e-19 -8.12542e-16) OK.
    Max cell openness = 3.60258e-16 OK.
    Max aspect ratio = 5.62123 OK.
    Minimum face area = 4.34028e-08. Maximum face area = 0.000121519.  Face area magnitudes OK.
    Min volume = 9.04225e-12. Max volume = 8.10126e-07.  Total volume = 0.0360639.  Cell volumes OK.
    Mesh non-orthogonality Max: 52.4845 average: 9.54641
    Non-orthogonality check OK.
    Face pyramids OK.
    Max skewness = 1 OK.
    Coupled point location match (average 0) OK.

Mesh OK.

Time = 2

Mesh stats
    points:           1140886
    faces:            3146428
    internal faces:   3008512
    cells:            1005933
    faces per cell:   6.11864
    boundary patches: 12
    point zones:      0
    face zones:       0
    cell zones:       0

Overall number of cells of each type:
    hexahedra:     935268
    prisms:        18464
    wedges:        0
    pyramids:      0
    tet wedges:    0
    tetrahedra:    0
    polyhedra:     52201
    Breakdown of polyhedra by number of faces:
        faces   number of cells
            4   376
            5   2224
            6   13701
            7   376
            8   168
            9   24324
           11   184
           12   10483
           13   4
           15   360
           18   1

Checking topology...
    Boundary definition OK.
    Cell to face addressing OK.
    Point usage OK.
    Upper triangular ordering OK.
    Face vertices OK.
    Number of regions: 1 (OK).

Checking basic patch addressing...
                   Patch    Faces   Points
              outerWalls     5760     6292
                  outlet     1392     1552
                   inlet      720      820
           splitterFront    16696    19500
           splitterRight     1800     2000
            splitterRear    18252    20829
            splitterLeft     1800     2000
          splitterBottom     5168     6160
             splitterTop     5168     6162
    combustor_outerWalls        0        0

Checking geometry...
    Overall domain bounding box (-0.12 -0.3 -0.12) (0.12 0.5 0.12)
    Mesh has 3 geometric (non-empty/wedge) directions (1 1 1)
    Mesh has 3 solution (non-empty) directions (1 1 1)
    Boundary openness (5.15885e-17 6.64217e-18 1.36085e-16) OK.
    Max cell openness = 5.29651e-16 OK.
    Max aspect ratio = 19.1167 OK.
    Minimum face area = 2.91733e-09. Maximum face area = 0.000121573.  Face area magnitudes OK.
    Min volume = 5.17903e-13. Max volume = 8.10445e-07.  Total volume = 0.0360639.  Cell volumes OK.
    Mesh non-orthogonality Max: 64.9981 average: 10.7185
    Non-orthogonality check OK.
    Face pyramids OK.
    Max skewness = 3.72992 OK.
    Coupled point location match (average 0) OK.

Mesh OK.

--> FOAM Warning : 
    From function virtual Foam::polyMesh::readUpdateState Foam::polyMesh::readUpdate()
    in file meshes/polyMesh/polyMeshIO.C at line 209
    unexpected consequences.  Proceed with care.
Time = 3

Mesh stats
    points:           1254250
    faces:            3480235
    internal faces:   3340461
    cells:            1115933
    faces per cell:   6.1121
    boundary patches: 11
    point zones:      0
    face zones:       0
    cell zones:       0

Overall number of cells of each type:
    hexahedra:     1037524
    prisms:        19596
    wedges:        0
    pyramids:      0
    tet wedges:    12
    tetrahedra:    0
    polyhedra:     58801
    Breakdown of polyhedra by number of faces:
        faces   number of cells
            4   1124
            5   1780
            6   14653
            7   3424
            8   2476
            9   23988
           10   316
           11   184
           12   10495
           15   360
           18   1

Checking topology...
    Boundary definition OK.
    Cell to face addressing OK.
    Point usage OK.
    Upper triangular ordering OK.
    Face vertices OK.
    Number of regions: 1 (OK).

Checking basic patch addressing...
                   Patch    Faces   Points
              outerWalls     5760     6292
                  outlet     1392     1552
                   inlet      720      820
           splitterFront    16184    18672
           splitterRight     1800     2000
            splitterRear    17452    19869
            splitterLeft     1800     2000
          splitterBottom     5164     6154
             splitterTop     5164     6154

Checking geometry...
    Overall domain bounding box (-0.12 -0.3 -0.12) (0.12 0.5 0.12)
    Mesh has 3 geometric (non-empty/wedge) directions (1 1 1)
    Mesh has 3 solution (non-empty) directions (1 1 1)
    Boundary openness (-4.4385e-16 5.83282e-18 -2.83812e-17) OK.
    Max cell openness = 1.02162e-15 OK.
    Max aspect ratio = 25.0541 OK.
    Minimum face area = 2.91733e-09. Maximum face area = 0.000121595.  Face area magnitudes OK.
    Min volume = 4.68692e-13. Max volume = 8.12955e-07.  Total volume = 0.0360639.  Cell volumes OK.
    Mesh non-orthogonality Max: 64.9981 average: 10.3589
    Non-orthogonality check OK.
    Face pyramids OK.
    Max skewness = 3.72992 OK.
    Coupled point location match (average 0) OK.

Mesh OK.

End

Finalising parallel run
