/*---------------------------------------------------------------------------*\
  =========                 |
  \\      /  F ield         | OpenFOAM: The Open Source CFD Toolbox
   \\    /   O peration     | Website:  https://openfoam.org
    \\  /    A nd           | Version:  8
     \\/     M anipulation  |
\*---------------------------------------------------------------------------*/
Build  : 8
Exec   : surfaceFeatures
Date   : Dec 28 2020
Time   : 18:08:03
Host   : "edo20-HP-Pavilion-Notebook"
PID    : 289438
I/O    : uncollated
Case   : /home/edo20/Piscaglia/Shared_docker_folder/Shared_CTTP/testEdo/3D/combustorMesh
nProcs : 1
sigFpe : Enabling floating point exception trapping (FOAM_SIGFPE).
fileModificationChecking : Monitoring run-time modified files using timeStampMaster (fileModificationSkew 10)
allowSystemOperations : Allowing user-supplied system call operations

// * * * * * * * * * * * * * * * * * * * * * * * * * * * * * * * * * * * * * //
Create time

Reading surfaceFeaturesDict

Surface            : "splitter.stl"


Feature line extraction is only valid on closed manifold surfaces.
Statistics:
Triangles    : 60
Vertices     : 32
Bounding Box : (-0.04 0.00149977 -0.015) (0.04 0.04 0.015)


Constructing feature set from included angle 150
Selecting edges purely based on geometric tests: no

Initial feature set:
    feature points : 8
    feature edges  : 36
    of which
        region edges   : 0
        external edges : 36
        internal edges : 0


Final feature set:
points      : 32
edges       : 36
boundingBox : (-0.04 0.00149977 -0.015) (0.04 0.04 0.015)
point classification :
    convex feature points          :        8
    concave feature points         :        0
    mixed feature points           :        0
    other (non-feature) points     :       24
edge classification :
    external (convex angle) edges  :       36
    internal (concave angle) edges :        0
    flat region edges              :        0
    open edges                     :        0
    multiply connected edges       :        0

Writing extendedFeatureEdgeMesh to "constant/extendedFeatureEdgeMesh/splitter.extendedFeatureEdgeMesh"

Writing extendedEdgeMesh components to "/home/edo20/Piscaglia/Shared_docker_folder/Shared_CTTP/testEdo/3D/combustorMesh/constant/extendedFeatureEdgeMesh/splitter"

Writing featureEdgeMesh to "constant/triSurface/splitter.eMesh"

ExecutionTime = 0 s  ClockTime = 0 s

End

