/*---------------------------------------------------------------------------*\
  =========                 |
  \\      /  F ield         | OpenFOAM: The Open Source CFD Toolbox
   \\    /   O peration     | Website:  https://openfoam.org
    \\  /    A nd           | Version:  8
     \\/     M anipulation  |
\*---------------------------------------------------------------------------*/
Build  : 8
Exec   : decomposePar
Date   : Dec 05 2020
Time   : 19:47:43
Host   : "edo20-HP-Pavilion-Notebook"
PID    : 3780
I/O    : uncollated
Case   : /home/edo20/Piscaglia/Shared_docker_folder/Shared_CTTP/testEdo/Labs/Lab04-HeatTransfer/combustor2D-RPF-highRe-highT
nProcs : 1
sigFpe : Enabling floating point exception trapping (FOAM_SIGFPE).
fileModificationChecking : Monitoring run-time modified files using timeStampMaster (fileModificationSkew 10)
allowSystemOperations : Allowing user-supplied system call operations

// * * * * * * * * * * * * * * * * * * * * * * * * * * * * * * * * * * * * * //
Create time



Decomposing mesh region0

Create mesh

Calculating distribution of cells
Selecting decompositionMethod scotch

Finished decomposition in 0.02 s

Calculating original mesh data

Distributing cells to processors

Distributing faces to processors

Distributing points to processors

Constructing processor meshes

Processor 0
    Number of cells = 7800
    Number of faces shared with processor 1 = 131
    Number of processor patches = 1
    Number of processor faces = 131
    Number of boundary faces = 15915

Processor 1
    Number of cells = 7877
    Number of faces shared with processor 0 = 131
    Number of processor patches = 1
    Number of processor faces = 131
    Number of boundary faces = 16041

Number of processor faces = 131
Max number of cells = 7877 (0.491165% above average 7838.5)
Max number of processor patches = 1 (0% above average 1)
Max number of faces between processors = 131 (0% above average 131)

Time = 0

Processor 0: field transfer
Processor 1: field transfer

End

