/*---------------------------------------------------------------------------*\
  =========                 |
  \\      /  F ield         | OpenFOAM: The Open Source CFD Toolbox
   \\    /   O peration     | Website:  https://openfoam.org
    \\  /    A nd           | Version:  8
     \\/     M anipulation  |
\*---------------------------------------------------------------------------*/
Build  : 8
Exec   : reconstructPar
Date   : Dec 05 2020
Time   : 21:16:23
Host   : "edo20-HP-Pavilion-Notebook"
PID    : 5766
I/O    : uncollated
Case   : /home/edo20/Piscaglia/Shared_docker_folder/Shared_CTTP/testEdo/Labs/Lab04-HeatTransfer/combustor2D-RPF-highRe-highT
nProcs : 1
sigFpe : Enabling floating point exception trapping (FOAM_SIGFPE).
fileModificationChecking : Monitoring run-time modified files using timeStampMaster (fileModificationSkew 10)
allowSystemOperations : Allowing user-supplied system call operations

// * * * * * * * * * * * * * * * * * * * * * * * * * * * * * * * * * * * * * //
Create time



Reconstructing fields for mesh region0

Time = 0.01

Reconstructing FV fields

    Reconstructing volScalarFields

        alphat
        Ma
        nut
        kPrime2Mean
        rho
        pMean
        kMean
        p
        pPrime2Mean
        T
        k
        epsilon

    Reconstructing volVectorFields

        U
        UMean

    Reconstructing volSymmTensorFields

        UPrime2Mean

    Reconstructing surfaceScalarFields

        phi

Reconstructing point fields

No point fields

No lagrangian fields

Time = 0.02

Reconstructing FV fields

    Reconstructing volScalarFields

        alphat
        Ma
        nut
        kPrime2Mean
        rho
        pMean
        kMean
        p
        pPrime2Mean
        T
        k
        epsilon

    Reconstructing volVectorFields

        U
        UMean

    Reconstructing volSymmTensorFields

        UPrime2Mean

    Reconstructing surfaceScalarFields

        phi

Reconstructing point fields

No point fields

No lagrangian fields

Time = 0.03

Reconstructing FV fields

    Reconstructing volScalarFields

        alphat
        Ma
        nut
        kPrime2Mean
        rho
        pMean
        kMean
        p
        pPrime2Mean
        T
        k
        epsilon

    Reconstructing volVectorFields

        U
        UMean

    Reconstructing volSymmTensorFields

        UPrime2Mean

    Reconstructing surfaceScalarFields

        phi

Reconstructing point fields

No point fields

No lagrangian fields

Time = 0.04

Reconstructing FV fields

    Reconstructing volScalarFields

        alphat
        Ma
        nut
        kPrime2Mean
        rho
        pMean
        kMean
        p
        pPrime2Mean
        T
        k
        epsilon

    Reconstructing volVectorFields

        U
        UMean

    Reconstructing volSymmTensorFields

        UPrime2Mean

    Reconstructing surfaceScalarFields

        phi

Reconstructing point fields

No point fields

No lagrangian fields

Time = 0.05

Reconstructing FV fields

    Reconstructing volScalarFields

        alphat
        Ma
        nut
        kPrime2Mean
        rho
        pMean
        kMean
        p
        pPrime2Mean
        T
        k
        epsilon

    Reconstructing volVectorFields

        U
        UMean

    Reconstructing volSymmTensorFields

        UPrime2Mean

    Reconstructing surfaceScalarFields

        phi

Reconstructing point fields

No point fields

No lagrangian fields

Time = 0.06

Reconstructing FV fields

    Reconstructing volScalarFields

        alphat
        Ma
        nut
        kPrime2Mean
        rho
        pMean
        kMean
        p
        pPrime2Mean
        T
        k
        epsilon

    Reconstructing volVectorFields

        U
        UMean

    Reconstructing volSymmTensorFields

        UPrime2Mean

    Reconstructing surfaceScalarFields

        phi

Reconstructing point fields

No point fields

No lagrangian fields

Time = 0.07

Reconstructing FV fields

    Reconstructing volScalarFields

        alphat
        Ma
        nut
        kPrime2Mean
        rho
        pMean
        kMean
        p
        pPrime2Mean
        T
        k
        epsilon

    Reconstructing volVectorFields

        U
        UMean

    Reconstructing volSymmTensorFields

        UPrime2Mean

    Reconstructing surfaceScalarFields

        phi

Reconstructing point fields

No point fields

No lagrangian fields

Time = 0.08

Reconstructing FV fields

    Reconstructing volScalarFields

        alphat
        Ma
        nut
        kPrime2Mean
        rho
        pMean
        kMean
        p
        pPrime2Mean
        T
        k
        epsilon

    Reconstructing volVectorFields

        U
        UMean

    Reconstructing volSymmTensorFields

        UPrime2Mean

    Reconstructing surfaceScalarFields

        phi

Reconstructing point fields

No point fields

No lagrangian fields

Time = 0.09

Reconstructing FV fields

    Reconstructing volScalarFields

        alphat
        Ma
        nut
        kPrime2Mean
        rho
        pMean
        kMean
        p
        pPrime2Mean
        T
        k
        epsilon

    Reconstructing volVectorFields

        U
        UMean

    Reconstructing volSymmTensorFields

        UPrime2Mean

    Reconstructing surfaceScalarFields

        phi

Reconstructing point fields

No point fields

No lagrangian fields

Time = 0.1

Reconstructing FV fields

    Reconstructing volScalarFields

        alphat
        Ma
        nut
        kPrime2Mean
        rho
        pMean
        kMean
        p
        pPrime2Mean
        T
        k
        epsilon

    Reconstructing volVectorFields

        U
        UMean

    Reconstructing volSymmTensorFields

        UPrime2Mean

    Reconstructing surfaceScalarFields

        phi

Reconstructing point fields

No point fields

No lagrangian fields

Time = 0.11

Reconstructing FV fields

    Reconstructing volScalarFields

        alphat
        Ma
        nut
        kPrime2Mean
        rho
        pMean
        kMean
        p
        pPrime2Mean
        T
        k
        epsilon

    Reconstructing volVectorFields

        U
        UMean

    Reconstructing volSymmTensorFields

        UPrime2Mean

    Reconstructing surfaceScalarFields

        phi

Reconstructing point fields

No point fields

No lagrangian fields

Time = 0.12

Reconstructing FV fields

    Reconstructing volScalarFields

        alphat
        Ma
        nut
        kPrime2Mean
        rho
        pMean
        kMean
        p
        pPrime2Mean
        T
        k
        epsilon

    Reconstructing volVectorFields

        U
        UMean

    Reconstructing volSymmTensorFields

        UPrime2Mean

    Reconstructing surfaceScalarFields

        phi

Reconstructing point fields

No point fields

No lagrangian fields

Time = 0.13

Reconstructing FV fields

    Reconstructing volScalarFields

        alphat
        Ma
        nut
        kPrime2Mean
        rho
        pMean
        kMean
        p
        pPrime2Mean
        T
        k
        epsilon

    Reconstructing volVectorFields

        U
        UMean

    Reconstructing volSymmTensorFields

        UPrime2Mean

    Reconstructing surfaceScalarFields

        phi

Reconstructing point fields

No point fields

No lagrangian fields

Time = 0.14

Reconstructing FV fields

    Reconstructing volScalarFields

        alphat
        Ma
        nut
        kPrime2Mean
        rho
        pMean
        kMean
        p
        pPrime2Mean
        T
        k
        epsilon

    Reconstructing volVectorFields

        U
        UMean

    Reconstructing volSymmTensorFields

        UPrime2Mean

    Reconstructing surfaceScalarFields

        phi

Reconstructing point fields

No point fields

No lagrangian fields

Time = 0.15

Reconstructing FV fields

    Reconstructing volScalarFields

        alphat
        Ma
        nut
        kPrime2Mean
        rho
        pMean
        kMean
        p
        pPrime2Mean
        T
        k
        epsilon

    Reconstructing volVectorFields

        U
        UMean

    Reconstructing volSymmTensorFields

        UPrime2Mean

    Reconstructing surfaceScalarFields

        phi

Reconstructing point fields

No point fields

No lagrangian fields

Time = 0.16

Reconstructing FV fields

    Reconstructing volScalarFields

        alphat
        Ma
        nut
        kPrime2Mean
        rho
        pMean
        kMean
        p
        pPrime2Mean
        T
        k
        epsilon

    Reconstructing volVectorFields

        U
        UMean

    Reconstructing volSymmTensorFields

        UPrime2Mean

    Reconstructing surfaceScalarFields

        phi

Reconstructing point fields

No point fields

No lagrangian fields

Time = 0.17

Reconstructing FV fields

    Reconstructing volScalarFields

        alphat
        Ma
        nut
        kPrime2Mean
        rho
        pMean
        kMean
        p
        pPrime2Mean
        T
        k
        epsilon

    Reconstructing volVectorFields

        U
        UMean

    Reconstructing volSymmTensorFields

        UPrime2Mean

    Reconstructing surfaceScalarFields

        phi

Reconstructing point fields

No point fields

No lagrangian fields

Time = 0.18

Reconstructing FV fields

    Reconstructing volScalarFields

        alphat
        Ma
        nut
        kPrime2Mean
        rho
        pMean
        kMean
        p
        pPrime2Mean
        T
        k
        epsilon

    Reconstructing volVectorFields

        U
        UMean

    Reconstructing volSymmTensorFields

        UPrime2Mean

    Reconstructing surfaceScalarFields

        phi

Reconstructing point fields

No point fields

No lagrangian fields

Time = 0.19

Reconstructing FV fields

    Reconstructing volScalarFields

        alphat
        Ma
        nut
        kPrime2Mean
        rho
        pMean
        kMean
        p
        pPrime2Mean
        T
        k
        epsilon

    Reconstructing volVectorFields

        U
        UMean

    Reconstructing volSymmTensorFields

        UPrime2Mean

    Reconstructing surfaceScalarFields

        phi

Reconstructing point fields

No point fields

No lagrangian fields

Time = 0.2

Reconstructing FV fields

    Reconstructing volScalarFields

        alphat
        Ma
        nut
        kPrime2Mean
        rho
        pMean
        kMean
        p
        pPrime2Mean
        T
        k
        epsilon

    Reconstructing volVectorFields

        U
        UMean

    Reconstructing volSymmTensorFields

        UPrime2Mean

    Reconstructing surfaceScalarFields

        phi

Reconstructing point fields

No point fields

No lagrangian fields


End

