/*---------------------------------------------------------------------------*\
  =========                 |
  \\      /  F ield         | OpenFOAM: The Open Source CFD Toolbox
   \\    /   O peration     | Website:  https://openfoam.org
    \\  /    A nd           | Version:  8
     \\/     M anipulation  |
\*---------------------------------------------------------------------------*/
Build  : 8
Exec   : extrudeToRegionMesh -overwrite
Date   : Jan 03 2021
Time   : 14:06:42
Host   : "edo20-HP-Pavilion-Notebook"
PID    : 22272
I/O    : uncollated
Case   : /home/edo20/Piscaglia/Shared_docker_folder/Shared_CTTP/testEdo/Labs/Lab0506/combustor2D-wf-ReitzDiwakar
nProcs : 1
sigFpe : Enabling floating point exception trapping (FOAM_SIGFPE).
fileModificationChecking : Monitoring run-time modified files using timeStampMaster (fileModificationSkew 10)
allowSystemOperations : Allowing user-supplied system call operations

// * * * * * * * * * * * * * * * * * * * * * * * * * * * * * * * * * * * * * //
Create time

Create mesh for time = 0

Selecting extrudeModel linearNormal
Extruding zones 1(wallFilmFaces) on mesh region0 into shell mesh wallFilmRegion
Testing:"/home/edo20/Piscaglia/Shared_docker_folder/Shared_CTTP/testEdo/Labs/Lab0506/combustor2D-wf-ReitzDiwakar/system/wallFilmRegion/fvSchemes"
Writing meshes to constant

Zone wallFilmFaces has boundary faces
extrudePatch : faces:260 points:524 edges:782

Adding coupling patches:

patchID	patch	type
-------	-----	----
7	wallFilmFaces_top	patch
8	region0_to_wallFilmRegion_wallFilmFaces	mappedWall
Added 2 inter-region patches.

Adding coupling patches:

patchID	patch	type
-------	-----	----
7	wallFilmFaces_top	patch
8	region0_to_wallFilmRegion_wallFilmFaces	mappedWall
Added 2 inter-region patches.

Adding patches for sides on zones:

patchID	patch
-------	-----
Added 0 zone-side patches.

Adding processor or cyclic patches:

patchID	patch
-------	-----
Added 0 coupled patches.

Deleting patch 2 name:splitter
Deleting patch 3 name:fuel_inlet
Deleting patch 4 name:back
Deleting patch 5 name:sides
Writing mesh wallFilmRegion to "constant"

Deleting patch 5 name:sides
Deleting patch 7 name:wallFilmFaces_top
Writing mesh region0 to "constant"

End

