/*---------------------------------------------------------------------------*\
  =========                 |
  \\      /  F ield         | OpenFOAM: The Open Source CFD Toolbox
   \\    /   O peration     | Website:  https://openfoam.org
    \\  /    A nd           | Version:  8
     \\/     M anipulation  |
\*---------------------------------------------------------------------------*/
Build  : 8
Exec   : foamToVTK
Date   : Dec 23 2020
Time   : 11:27:20
Host   : "edo20-HP-Pavilion-Notebook"
PID    : 13626
I/O    : uncollated
Case   : /home/edo20/Piscaglia/Shared_docker_folder/Shared_CTTP/testEdo/Labs/Lab0506/combustor2D-wf-ReitzDiwakar
nProcs : 1
sigFpe : Enabling floating point exception trapping (FOAM_SIGFPE).
fileModificationChecking : Monitoring run-time modified files using timeStampMaster (fileModificationSkew 10)
allowSystemOperations : Allowing user-supplied system call operations

// * * * * * * * * * * * * * * * * * * * * * * * * * * * * * * * * * * * * * //
Create time

Create mesh for time = 0

Time: 0
    volScalarFields            : alphat nut N2 O2 p T Ydefault k epsilon
    volVectorFields            : U

    Internal  : "/home/edo20/Piscaglia/Shared_docker_folder/Shared_CTTP/testEdo/Labs/Lab0506/combustor2D-wf-ReitzDiwakar/VTK/combustor2D-wf-ReitzDiwakar_0.vtk"
    Original cells:15677 points:31956   Additional cells:0  additional points:0

    Patch     : "/home/edo20/Piscaglia/Shared_docker_folder/Shared_CTTP/testEdo/Labs/Lab0506/combustor2D-wf-ReitzDiwakar/VTK/inlet/inlet_0.vtk"
    Patch     : "/home/edo20/Piscaglia/Shared_docker_folder/Shared_CTTP/testEdo/Labs/Lab0506/combustor2D-wf-ReitzDiwakar/VTK/outlet/outlet_0.vtk"
    Patch     : "/home/edo20/Piscaglia/Shared_docker_folder/Shared_CTTP/testEdo/Labs/Lab0506/combustor2D-wf-ReitzDiwakar/VTK/splitter/splitter_0.vtk"
    Patch     : "/home/edo20/Piscaglia/Shared_docker_folder/Shared_CTTP/testEdo/Labs/Lab0506/combustor2D-wf-ReitzDiwakar/VTK/fuel_inlet/fuel_inlet_0.vtk"
    Patch     : "/home/edo20/Piscaglia/Shared_docker_folder/Shared_CTTP/testEdo/Labs/Lab0506/combustor2D-wf-ReitzDiwakar/VTK/back/back_0.vtk"
    Patch     : "/home/edo20/Piscaglia/Shared_docker_folder/Shared_CTTP/testEdo/Labs/Lab0506/combustor2D-wf-ReitzDiwakar/VTK/frontAndBack/frontAndBack_0.vtk"
    Patch     : "/home/edo20/Piscaglia/Shared_docker_folder/Shared_CTTP/testEdo/Labs/Lab0506/combustor2D-wf-ReitzDiwakar/VTK/region0_to_wallFilmRegion_wallFilmFaces/region0_to_wallFilmRegion_wallFilmFaces_0.vtk"
    FaceZone  : "/home/edo20/Piscaglia/Shared_docker_folder/Shared_CTTP/testEdo/Labs/Lab0506/combustor2D-wf-ReitzDiwakar/VTK/wallFilmFaces/wallFilmFaces_0.vtk"
End

