/*---------------------------------------------------------------------------*\
  =========                 |
  \\      /  F ield         | OpenFOAM: The Open Source CFD Toolbox
   \\    /   O peration     | Website:  https://openfoam.org
    \\  /    A nd           | Version:  8
     \\/     M anipulation  |
\*---------------------------------------------------------------------------*/
Build  : 8
Exec   : rhoPimpleFoam -parallel
Date   : Dec 30 2020
Time   : 11:37:11
Host   : "edo20-HP-Pavilion-Notebook"
PID    : 86815
I/O    : uncollated
Case   : /home/edo20/Piscaglia/Shared_docker_folder/Shared_CTTP/testEdo/3D/combustorRhoPimpleRemesh
nProcs : 4
Slaves : 
3
(
"edo20-HP-Pavilion-Notebook.86816"
"edo20-HP-Pavilion-Notebook.86817"
"edo20-HP-Pavilion-Notebook.86818"
)

Pstream initialized with:
    floatTransfer      : 0
    nProcsSimpleSum    : 0
    commsType          : nonBlocking
    polling iterations : 0
sigFpe : Enabling floating point exception trapping (FOAM_SIGFPE).
fileModificationChecking : Monitoring run-time modified files using timeStampMaster (fileModificationSkew 10)
allowSystemOperations : Allowing user-supplied system call operations

// * * * * * * * * * * * * * * * * * * * * * * * * * * * * * * * * * * * * * //
Create time

Create mesh for time = 0


PIMPLE: No convergence criteria found


PIMPLE: Corrector convergence criteria found
        "(U|k|epsilon|p|rho|h)": tolerance 0.0001, relTol 0
        Calculations will do 20 corrections if the convergence criteria are not met


PIMPLE: Operating solver in transient mode with 20 outer correctors


Reading thermophysical properties

Selecting thermodynamics package 
{
    type            hePsiThermo;
    mixture         pureMixture;
    transport       const;
    thermo          hConst;
    equationOfState perfectGas;
    specie          specie;
    energy          sensibleEnthalpy;
}

Reading field U

Reading/calculating face flux field phi

Creating turbulence model

Selecting turbulence model type RAS
Selecting RAS turbulence model kEpsilon
RAS
{
    model           kEpsilon;
    turbulence      on;
    printCoeffs     on;
    Cmu             0.09;
    C1              1.44;
    C2              1.92;
    C3              0;
    sigmak          1;
    sigmaEps        1.3;
}

Creating thermophysical transport model

Selecting thermophysical transport type RAS
Selecting default RAS thermophysical transport model eddyDiffusivity
Creating field dpdt

Creating field kinetic energy K

No MRF models present

No finite volume options present
Courant Number mean: 0.020175159 max: 2.5729425
surfaceFieldValue flowRatePatch(name=outlet):
    total faces  = 1848
    total area   = 0.045006334


surfaceFieldValue pInlet:
    total faces  = 405
    total area   = 0.045007328


surfaceFieldValue pOutlet:
    total faces  = 1848
    total area   = 0.045006334


surfaceFieldValue TOutlet:
    total faces  = 1848
    total area   = 0.045006334


surfaceFieldValue TouterWalls:
    total faces  = 3240
    total area   = 0.60241686



Starting time loop

Courant Number mean: 0.020175159 max: 2.5729425
deltaT = 1.2e-05
Time = 1.2e-05

PIMPLE: Iteration 1
diagonal:  Solving for rho, Initial residual = 0, Final residual = 0, No Iterations 0
smoothSolver:  Solving for Ux, Initial residual = 1, Final residual = 1.5543528e-06, No Iterations 5
smoothSolver:  Solving for Uy, Initial residual = 1, Final residual = 1.8623016e-06, No Iterations 3
smoothSolver:  Solving for Uz, Initial residual = 1, Final residual = 6.7209295e-06, No Iterations 3
smoothSolver:  Solving for h, Initial residual = 0.8364128, Final residual = 4.2667157e-06, No Iterations 3
GAMG:  Solving for p, Initial residual = 1, Final residual = 0.0054773371, No Iterations 6
GAMG:  Solving for p, Initial residual = 0.14087024, Final residual = 0.0010654918, No Iterations 3
GAMG:  Solving for p, Initial residual = 0.026778743, Final residual = 0.00023198833, No Iterations 3
GAMG:  Solving for p, Initial residual = 0.0070899204, Final residual = 4.4119456e-05, No Iterations 3
diagonal:  Solving for rho, Initial residual = 0, Final residual = 0, No Iterations 0
time step continuity errors : sum local = 4.2752549e-09, global = -7.4697224e-12, cumulative = -7.4697224e-12
GAMG:  Solving for p, Initial residual = 0.19060579, Final residual = 0.00084675985, No Iterations 6
GAMG:  Solving for p, Initial residual = 0.066919091, Final residual = 0.00050158661, No Iterations 3
GAMG:  Solving for p, Initial residual = 0.013290673, Final residual = 0.00011488286, No Iterations 3
GAMG:  Solving for p, Initial residual = 0.0035508574, Final residual = 7.3605808e-06, No Iterations 4
diagonal:  Solving for rho, Initial residual = 0, Final residual = 0, No Iterations 0
time step continuity errors : sum local = 7.2630934e-10, global = -7.1636397e-12, cumulative = -1.4633362e-11
smoothSolver:  Solving for epsilon, Initial residual = 0.039242074, Final residual = 7.0892944e-06, No Iterations 1
smoothSolver:  Solving for k, Initial residual = 1, Final residual = 4.7939112e-06, No Iterations 3
PIMPLE: Iteration 2
smoothSolver:  Solving for Ux, Initial residual = 0.1481028, Final residual = 3.07535e-06, No Iterations 3
smoothSolver:  Solving for Uy, Initial residual = 0.022162793, Final residual = 8.9091344e-06, No Iterations 2
smoothSolver:  Solving for Uz, Initial residual = 0.14438911, Final residual = 2.3353384e-06, No Iterations 3
smoothSolver:  Solving for h, Initial residual = 0.99964698, Final residual = 7.8694473e-06, No Iterations 3
GAMG:  Solving for p, Initial residual = 0.18211413, Final residual = 0.0009218105, No Iterations 6
GAMG:  Solving for p, Initial residual = 0.052049067, Final residual = 0.00044381748, No Iterations 3
GAMG:  Solving for p, Initial residual = 0.009684547, Final residual = 9.3728572e-05, No Iterations 3
GAMG:  Solving for p, Initial residual = 0.0024980876, Final residual = 1.7279108e-05, No Iterations 3
diagonal:  Solving for rho, Initial residual = 0, Final residual = 0, No Iterations 0
time step continuity errors : sum local = 1.5909024e-09, global = -5.5153304e-12, cumulative = -2.0148693e-11
GAMG:  Solving for p, Initial residual = 0.076679547, Final residual = 0.00036765774, No Iterations 6
GAMG:  Solving for p, Initial residual = 0.02577427, Final residual = 0.00021799323, No Iterations 3
GAMG:  Solving for p, Initial residual = 0.0048347347, Final residual = 4.6809219e-05, No Iterations 3
GAMG:  Solving for p, Initial residual = 0.0012522677, Final residual = 8.6204791e-06, No Iterations 3
diagonal:  Solving for rho, Initial residual = 0, Final residual = 0, No Iterations 0
time step continuity errors : sum local = 7.9984359e-10, global = -2.5445847e-12, cumulative = -2.2693277e-11
smoothSolver:  Solving for epsilon, Initial residual = 0.029859725, Final residual = 1.4962674e-06, No Iterations 1
smoothSolver:  Solving for k, Initial residual = 0.11749306, Final residual = 6.1494769e-07, No Iterations 3
PIMPLE: Iteration 3
smoothSolver:  Solving for Ux, Initial residual = 0.063946788, Final residual = 1.932125e-06, No Iterations 3
smoothSolver:  Solving for Uy, Initial residual = 0.0070136097, Final residual = 4.6229853e-06, No Iterations 2
smoothSolver:  Solving for Uz, Initial residual = 0.068916552, Final residual = 1.6948543e-06, No Iterations 3
smoothSolver:  Solving for h, Initial residual = 0.19121953, Final residual = 1.6923778e-06, No Iterations 3
GAMG:  Solving for p, Initial residual = 0.098265602, Final residual = 0.00089412467, No Iterations 5
GAMG:  Solving for p, Initial residual = 0.018710972, Final residual = 6.5750994e-05, No Iterations 4
GAMG:  Solving for p, Initial residual = 0.0029394241, Final residual = 1.158786e-05, No Iterations 4
GAMG:  Solving for p, Initial residual = 0.00071116837, Final residual = 5.4778917e-06, No Iterations 3
diagonal:  Solving for rho, Initial residual = 0, Final residual = 0, No Iterations 0
time step continuity errors : sum local = 5.0612224e-10, global = 3.9657419e-13, cumulative = -2.2296703e-11
GAMG:  Solving for p, Initial residual = 0.047404945, Final residual = 0.00040919074, No Iterations 5
GAMG:  Solving for p, Initial residual = 0.0094878724, Final residual = 9.4065549e-05, No Iterations 3
GAMG:  Solving for p, Initial residual = 0.0015143844, Final residual = 6.3622503e-06, No Iterations 4
GAMG:  Solving for p, Initial residual = 0.00035975115, Final residual = 8.4657081e-06, No Iterations 2
diagonal:  Solving for rho, Initial residual = 0, Final residual = 0, No Iterations 0
time step continuity errors : sum local = 7.8597863e-10, global = -9.6299392e-13, cumulative = -2.3259697e-11
smoothSolver:  Solving for epsilon, Initial residual = 0.011618966, Final residual = 1.1616231e-06, No Iterations 1
bounding epsilon, min: -4.5273554 max: 17996.451 average: 14.445118
smoothSolver:  Solving for k, Initial residual = 0.043153651, Final residual = 1.4081702e-06, No Iterations 3
PIMPLE: Iteration 4
smoothSolver:  Solving for Ux, Initial residual = 0.030428631, Final residual = 1.1198322e-06, No Iterations 3
smoothSolver:  Solving for Uy, Initial residual = 0.0030675192, Final residual = 2.5201692e-06, No Iterations 2
smoothSolver:  Solving for Uz, Initial residual = 0.037669125, Final residual = 1.3447987e-06, No Iterations 3
smoothSolver:  Solving for h, Initial residual = 0.0857675, Final residual = 1.022685e-06, No Iterations 3
GAMG:  Solving for p, Initial residual = 0.060273729, Final residual = 0.00041180264, No Iterations 5
GAMG:  Solving for p, Initial residual = 0.0088339247, Final residual = 3.2820188e-05, No Iterations 4
GAMG:  Solving for p, Initial residual = 0.0012961934, Final residual = 4.6151005e-06, No Iterations 4
GAMG:  Solving for p, Initial residual = 0.00027747243, Final residual = 7.2850009e-06, No Iterations 2
diagonal:  Solving for rho, Initial residual = 0, Final residual = 0, No Iterations 0
time step continuity errors : sum local = 6.8050714e-10, global = 6.5886582e-12, cumulative = -1.6671039e-11
GAMG:  Solving for p, Initial residual = 0.03054023, Final residual = 0.00019789777, No Iterations 5
GAMG:  Solving for p, Initial residual = 0.0045415842, Final residual = 1.6411013e-05, No Iterations 4
GAMG:  Solving for p, Initial residual = 0.00067382517, Final residual = 6.6968405e-06, No Iterations 3
GAMG:  Solving for p, Initial residual = 0.00014607434, Final residual = 4.0454096e-06, No Iterations 2
diagonal:  Solving for rho, Initial residual = 0, Final residual = 0, No Iterations 0
time step continuity errors : sum local = 3.7905221e-10, global = 2.2360823e-12, cumulative = -1.4434956e-11
smoothSolver:  Solving for epsilon, Initial residual = 0.0040493624, Final residual = 1.791802e-06, No Iterations 1
smoothSolver:  Solving for k, Initial residual = 0.019780467, Final residual = 2.0017723e-06, No Iterations 3
PIMPLE: Iteration 5
smoothSolver:  Solving for Ux, Initial residual = 0.015265418, Final residual = 6.0669319e-07, No Iterations 3
smoothSolver:  Solving for Uy, Initial residual = 0.0015236604, Final residual = 1.3685829e-06, No Iterations 2
smoothSolver:  Solving for Uz, Initial residual = 0.022074396, Final residual = 1.2123238e-06, No Iterations 3
smoothSolver:  Solving for h, Initial residual = 0.048010618, Final residual = 7.8400165e-07, No Iterations 3
GAMG:  Solving for p, Initial residual = 0.038142514, Final residual = 0.0002174401, No Iterations 5
GAMG:  Solving for p, Initial residual = 0.0048234619, Final residual = 1.8884287e-05, No Iterations 4
GAMG:  Solving for p, Initial residual = 0.00068683031, Final residual = 6.9502182e-06, No Iterations 3
GAMG:  Solving for p, Initial residual = 0.0001326096, Final residual = 4.1914822e-06, No Iterations 2
diagonal:  Solving for rho, Initial residual = 0, Final residual = 0, No Iterations 0
time step continuity errors : sum local = 3.949445e-10, global = 2.9971602e-12, cumulative = -1.1437796e-11
GAMG:  Solving for p, Initial residual = 0.019719953, Final residual = 0.00010652461, No Iterations 5
GAMG:  Solving for p, Initial residual = 0.002488436, Final residual = 9.4842599e-06, No Iterations 4
GAMG:  Solving for p, Initial residual = 0.00035742415, Final residual = 3.5927983e-06, No Iterations 3
GAMG:  Solving for p, Initial residual = 6.9699209e-05, Final residual = 7.6454325e-06, No Iterations 1
diagonal:  Solving for rho, Initial residual = 0, Final residual = 0, No Iterations 0
time step continuity errors : sum local = 7.2181187e-10, global = 1.6726548e-11, cumulative = 5.2887518e-12
smoothSolver:  Solving for epsilon, Initial residual = 0.0011825405, Final residual = 2.3154272e-06, No Iterations 1
bounding epsilon, min: -5.3764392 max: 15657.457 average: 14.139766
smoothSolver:  Solving for k, Initial residual = 0.0092735913, Final residual = 1.3506661e-06, No Iterations 3
PIMPLE: Iteration 6
smoothSolver:  Solving for Ux, Initial residual = 0.0088856144, Final residual = 3.5353241e-06, No Iterations 3
smoothSolver:  Solving for Uy, Initial residual = 0.00091130398, Final residual = 1.497864e-06, No Iterations 2
smoothSolver:  Solving for Uz, Initial residual = 0.014674061, Final residual = 4.4310649e-06, No Iterations 3
smoothSolver:  Solving for h, Initial residual = 0.029513108, Final residual = 7.4808091e-07, No Iterations 3
GAMG:  Solving for p, Initial residual = 0.024215254, Final residual = 0.0001256741, No Iterations 5
GAMG:  Solving for p, Initial residual = 0.0027828661, Final residual = 1.1523752e-05, No Iterations 4
GAMG:  Solving for p, Initial residual = 0.0003930987, Final residual = 3.9370686e-06, No Iterations 3
GAMG:  Solving for p, Initial residual = 7.5157515e-05, Final residual = 8.3110355e-06, No Iterations 1
diagonal:  Solving for rho, Initial residual = 0, Final residual = 0, No Iterations 0
time step continuity errors : sum local = 7.8730458e-10, global = 1.8376197e-11, cumulative = 2.3664949e-11
GAMG:  Solving for p, Initial residual = 0.012645191, Final residual = 6.207046e-05, No Iterations 5
GAMG:  Solving for p, Initial residual = 0.0014431754, Final residual = 5.8423623e-06, No Iterations 4
GAMG:  Solving for p, Initial residual = 0.00020648708, Final residual = 6.2256766e-06, No Iterations 2
GAMG:  Solving for p, Initial residual = 4.1088647e-05, Final residual = 4.9380913e-06, No Iterations 1
diagonal:  Solving for rho, Initial residual = 0, Final residual = 0, No Iterations 0
time step continuity errors : sum local = 4.6832828e-10, global = 5.3288018e-12, cumulative = 2.899375e-11
smoothSolver:  Solving for epsilon, Initial residual = 0.00027425181, Final residual = 2.3234631e-06, No Iterations 1
bounding epsilon, min: -5.6651491 max: 15486.667 average: 14.191262
smoothSolver:  Solving for k, Initial residual = 0.0036977401, Final residual = 9.34553e-06, No Iterations 2
PIMPLE: Iteration 7
smoothSolver:  Solving for Ux, Initial residual = 0.0056652281, Final residual = 4.2817266e-06, No Iterations 3
smoothSolver:  Solving for Uy, Initial residual = 0.00057553726, Final residual = 1.3252622e-06, No Iterations 2
smoothSolver:  Solving for Uz, Initial residual = 0.0095175933, Final residual = 1.7401413e-06, No Iterations 3
smoothSolver:  Solving for h, Initial residual = 0.018975987, Final residual = 7.8956731e-06, No Iterations 2
GAMG:  Solving for p, Initial residual = 0.015539633, Final residual = 7.7687073e-05, No Iterations 5
GAMG:  Solving for p, Initial residual = 0.0015621272, Final residual = 7.3104669e-06, No Iterations 4
GAMG:  Solving for p, Initial residual = 0.00020923625, Final residual = 6.2758829e-06, No Iterations 2
GAMG:  Solving for p, Initial residual = 3.9871058e-05, Final residual = 5.1627345e-06, No Iterations 1
diagonal:  Solving for rho, Initial residual = 0, Final residual = 0, No Iterations 0
time step continuity errors : sum local = 4.9039772e-10, global = 4.9982622e-12, cumulative = 3.3992013e-11
GAMG:  Solving for p, Initial residual = 0.0080800291, Final residual = 3.8617907e-05, No Iterations 5
GAMG:  Solving for p, Initial residual = 0.00080918562, Final residual = 3.7377876e-06, No Iterations 4
GAMG:  Solving for p, Initial residual = 0.00010959822, Final residual = 3.2438659e-06, No Iterations 2
GAMG:  Solving for p, Initial residual = 2.1085207e-05, Final residual = 2.6738407e-06, No Iterations 1
diagonal:  Solving for rho, Initial residual = 0, Final residual = 0, No Iterations 0
time step continuity errors : sum local = 2.5412001e-10, global = 2.8047699e-12, cumulative = 3.6796782e-11
smoothSolver:  Solving for epsilon, Initial residual = 8.5451743e-05, Final residual = 1.4624721e-06, No Iterations 1
bounding epsilon, min: -5.0609182 max: 15425.081 average: 14.251923
smoothSolver:  Solving for k, Initial residual = 0.0019773989, Final residual = 2.4400491e-06, No Iterations 2
PIMPLE: Iteration 8
smoothSolver:  Solving for Ux, Initial residual = 0.0058602888, Final residual = 5.0092033e-06, No Iterations 3
smoothSolver:  Solving for Uy, Initial residual = 0.00052636701, Final residual = 2.0573534e-06, No Iterations 2
smoothSolver:  Solving for Uz, Initial residual = 0.0098272432, Final residual = 9.5952686e-06, No Iterations 4
smoothSolver:  Solving for h, Initial residual = 0.01273901, Final residual = 7.424388e-06, No Iterations 2
GAMG:  Solving for p, Initial residual = 0.011373361, Final residual = 5.0321176e-05, No Iterations 5
GAMG:  Solving for p, Initial residual = 0.0011280515, Final residual = 5.3189256e-06, No Iterations 4
GAMG:  Solving for p, Initial residual = 0.00013941537, Final residual = 4.0002567e-06, No Iterations 2
GAMG:  Solving for p, Initial residual = 2.5391811e-05, Final residual = 3.3409144e-06, No Iterations 1
diagonal:  Solving for rho, Initial residual = 0, Final residual = 0, No Iterations 0
time step continuity errors : sum local = 3.175657e-10, global = 3.2299175e-12, cumulative = 4.00267e-11
GAMG:  Solving for p, Initial residual = 0.0059858971, Final residual = 2.5137612e-05, No Iterations 5
GAMG:  Solving for p, Initial residual = 0.00059727766, Final residual = 7.3848456e-06, No Iterations 3
GAMG:  Solving for p, Initial residual = 7.6145065e-05, Final residual = 8.71106e-06, No Iterations 1
GAMG:  Solving for p, Initial residual = 1.7196875e-05, Final residual = 3.1910437e-06, No Iterations 1
diagonal:  Solving for rho, Initial residual = 0, Final residual = 0, No Iterations 0
time step continuity errors : sum local = 3.0338821e-10, global = 4.980802e-13, cumulative = 4.052478e-11
smoothSolver:  Solving for epsilon, Initial residual = 5.3936049e-05, Final residual = 1.4382272e-06, No Iterations 1
bounding epsilon, min: -5.4902809 max: 15377.273 average: 14.283908
smoothSolver:  Solving for k, Initial residual = 0.0035403994, Final residual = 4.6956917e-06, No Iterations 4
PIMPLE: Iteration 9
smoothSolver:  Solving for Ux, Initial residual = 0.0028638482, Final residual = 9.1443153e-06, No Iterations 2
smoothSolver:  Solving for Uy, Initial residual = 0.00028607424, Final residual = 9.5271563e-06, No Iterations 1
smoothSolver:  Solving for Uz, Initial residual = 0.0053003731, Final residual = 4.2251507e-06, No Iterations 3
smoothSolver:  Solving for h, Initial residual = 0.008384389, Final residual = 3.737627e-06, No Iterations 2
GAMG:  Solving for p, Initial residual = 0.0087984749, Final residual = 8.55359e-05, No Iterations 4
GAMG:  Solving for p, Initial residual = 0.00094390858, Final residual = 4.4072126e-06, No Iterations 4
GAMG:  Solving for p, Initial residual = 0.00011017831, Final residual = 3.2083367e-06, No Iterations 2
GAMG:  Solving for p, Initial residual = 1.9910785e-05, Final residual = 2.6234622e-06, No Iterations 1
diagonal:  Solving for rho, Initial residual = 0, Final residual = 0, No Iterations 0
time step continuity errors : sum local = 2.4923518e-10, global = 2.153681e-12, cumulative = 4.2678461e-11
GAMG:  Solving for p, Initial residual = 0.0047251957, Final residual = 4.2814424e-05, No Iterations 4
GAMG:  Solving for p, Initial residual = 0.00050717853, Final residual = 6.2091623e-06, No Iterations 3
GAMG:  Solving for p, Initial residual = 6.1377124e-05, Final residual = 7.1488942e-06, No Iterations 1
GAMG:  Solving for p, Initial residual = 1.3856052e-05, Final residual = 2.6314358e-06, No Iterations 1
diagonal:  Solving for rho, Initial residual = 0, Final residual = 0, No Iterations 0
time step continuity errors : sum local = 2.5001327e-10, global = 1.6840813e-12, cumulative = 4.4362543e-11
smoothSolver:  Solving for epsilon, Initial residual = 2.3017668e-05, Final residual = 4.1361805e-07, No Iterations 1
bounding epsilon, min: -5.280848 max: 15328.353 average: 14.27886
smoothSolver:  Solving for k, Initial residual = 0.0040364556, Final residual = 5.4863718e-06, No Iterations 2
PIMPLE: Iteration 10
smoothSolver:  Solving for Ux, Initial residual = 0.0032081237, Final residual = 5.3358363e-06, No Iterations 4
smoothSolver:  Solving for Uy, Initial residual = 0.00026991276, Final residual = 8.323782e-06, No Iterations 1
smoothSolver:  Solving for Uz, Initial residual = 0.0038126201, Final residual = 5.6623486e-06, No Iterations 2
smoothSolver:  Solving for h, Initial residual = 0.0057301615, Final residual = 3.8241e-06, No Iterations 2
GAMG:  Solving for p, Initial residual = 0.0069686186, Final residual = 5.5887689e-05, No Iterations 4
GAMG:  Solving for p, Initial residual = 0.00078189725, Final residual = 8.762115e-06, No Iterations 3
GAMG:  Solving for p, Initial residual = 9.8211369e-05, Final residual = 3.2274049e-06, No Iterations 2
GAMG:  Solving for p, Initial residual = 1.8449545e-05, Final residual = 2.470087e-06, No Iterations 1
diagonal:  Solving for rho, Initial residual = 0, Final residual = 0, No Iterations 0
time step continuity errors : sum local = 2.3449346e-10, global = 2.2536966e-12, cumulative = 4.6616239e-11
GAMG:  Solving for p, Initial residual = 0.0038050011, Final residual = 2.786109e-05, No Iterations 4
GAMG:  Solving for p, Initial residual = 0.00042913603, Final residual = 4.6792056e-06, No Iterations 3
GAMG:  Solving for p, Initial residual = 5.4736915e-05, Final residual = 6.1302418e-06, No Iterations 1
GAMG:  Solving for p, Initial residual = 1.2308307e-05, Final residual = 2.1382316e-06, No Iterations 1
diagonal:  Solving for rho, Initial residual = 0, Final residual = 0, No Iterations 0
time step continuity errors : sum local = 2.0299553e-10, global = 1.3258845e-12, cumulative = 4.7942124e-11
smoothSolver:  Solving for epsilon, Initial residual = 3.1313603e-05, Final residual = 5.819484e-07, No Iterations 1
bounding epsilon, min: -4.9998441 max: 15290.843 average: 14.244389
smoothSolver:  Solving for k, Initial residual = 0.0048638573, Final residual = 5.8074465e-06, No Iterations 2
PIMPLE: Iteration 11
smoothSolver:  Solving for Ux, Initial residual = 0.0018844869, Final residual = 6.3161254e-06, No Iterations 3
smoothSolver:  Solving for Uy, Initial residual = 0.00017324897, Final residual = 5.9589192e-06, No Iterations 1
smoothSolver:  Solving for Uz, Initial residual = 0.0026629485, Final residual = 5.1242745e-06, No Iterations 2
smoothSolver:  Solving for h, Initial residual = 0.0038392128, Final residual = 2.2750418e-06, No Iterations 2
GAMG:  Solving for p, Initial residual = 0.0053142936, Final residual = 3.6241944e-05, No Iterations 4
GAMG:  Solving for p, Initial residual = 0.00060135075, Final residual = 6.2154684e-06, No Iterations 3
GAMG:  Solving for p, Initial residual = 7.4909462e-05, Final residual = 8.1498568e-06, No Iterations 1
GAMG:  Solving for p, Initial residual = 1.6464919e-05, Final residual = 2.8070323e-06, No Iterations 1
diagonal:  Solving for rho, Initial residual = 0, Final residual = 0, No Iterations 0
time step continuity errors : sum local = 2.664269e-10, global = 2.8343517e-12, cumulative = 5.0776475e-11
GAMG:  Solving for p, Initial residual = 0.0029293568, Final residual = 1.7828299e-05, No Iterations 4
GAMG:  Solving for p, Initial residual = 0.0003317104, Final residual = 9.6489322e-06, No Iterations 2
GAMG:  Solving for p, Initial residual = 4.437633e-05, Final residual = 5.757586e-06, No Iterations 1
GAMG:  Solving for p, Initial residual = 1.0395165e-05, Final residual = 2.1899454e-06, No Iterations 1
diagonal:  Solving for rho, Initial residual = 0, Final residual = 0, No Iterations 0
time step continuity errors : sum local = 2.0784754e-10, global = 2.2814891e-12, cumulative = 5.3057964e-11
smoothSolver:  Solving for epsilon, Initial residual = 3.5136672e-05, Final residual = 3.1084032e-07, No Iterations 1
bounding epsilon, min: -5.0564519 max: 15268.251 average: 14.202671
smoothSolver:  Solving for k, Initial residual = 0.0040631763, Final residual = 6.3654099e-06, No Iterations 2
PIMPLE: Iteration 12
smoothSolver:  Solving for Ux, Initial residual = 0.0011648564, Final residual = 3.4790073e-06, No Iterations 2
smoothSolver:  Solving for Uy, Initial residual = 0.00010202194, Final residual = 3.4409385e-06, No Iterations 1
smoothSolver:  Solving for Uz, Initial residual = 0.0020395332, Final residual = 3.8903409e-06, No Iterations 2
smoothSolver:  Solving for h, Initial residual = 0.002582603, Final residual = 1.15765e-06, No Iterations 2
GAMG:  Solving for p, Initial residual = 0.0041176561, Final residual = 2.3499439e-05, No Iterations 4
GAMG:  Solving for p, Initial residual = 0.00046338192, Final residual = 4.4795853e-06, No Iterations 3
GAMG:  Solving for p, Initial residual = 5.9285611e-05, Final residual = 6.1305517e-06, No Iterations 1
GAMG:  Solving for p, Initial residual = 1.2900843e-05, Final residual = 2.0255059e-06, No Iterations 1
diagonal:  Solving for rho, Initial residual = 0, Final residual = 0, No Iterations 0
time step continuity errors : sum local = 1.921107e-10, global = 1.6994064e-12, cumulative = 5.4757371e-11
GAMG:  Solving for p, Initial residual = 0.0023000695, Final residual = 1.1425772e-05, No Iterations 4
GAMG:  Solving for p, Initial residual = 0.00025720126, Final residual = 7.0843616e-06, No Iterations 2
GAMG:  Solving for p, Initial residual = 3.5130717e-05, Final residual = 4.1987059e-06, No Iterations 1
GAMG:  Solving for p, Initial residual = 8.0165389e-06, Final residual = 8.0165389e-06, No Iterations 0
diagonal:  Solving for rho, Initial residual = 0, Final residual = 0, No Iterations 0
time step continuity errors : sum local = 7.6031416e-10, global = 2.9738051e-12, cumulative = 5.7731176e-11
smoothSolver:  Solving for epsilon, Initial residual = 3.9540141e-05, Final residual = 3.2383826e-07, No Iterations 1
bounding epsilon, min: -4.7372817 max: 15255.925 average: 14.156244
smoothSolver:  Solving for k, Initial residual = 0.0036031953, Final residual = 2.267325e-06, No Iterations 2
PIMPLE: Iteration 13
smoothSolver:  Solving for Ux, Initial residual = 0.0010717494, Final residual = 6.0360918e-06, No Iterations 2
smoothSolver:  Solving for Uy, Initial residual = 9.0699497e-05, Final residual = 4.2983167e-06, No Iterations 1
smoothSolver:  Solving for Uz, Initial residual = 0.0017773692, Final residual = 5.1240358e-06, No Iterations 2
smoothSolver:  Solving for h, Initial residual = 0.0017977463, Final residual = 1.24859e-06, No Iterations 2
GAMG:  Solving for p, Initial residual = 0.0031321271, Final residual = 1.4938678e-05, No Iterations 4
GAMG:  Solving for p, Initial residual = 0.00034222523, Final residual = 9.1671695e-06, No Iterations 2
GAMG:  Solving for p, Initial residual = 4.5881279e-05, Final residual = 5.6099059e-06, No Iterations 1
GAMG:  Solving for p, Initial residual = 1.0671546e-05, Final residual = 2.1022503e-06, No Iterations 1
diagonal:  Solving for rho, Initial residual = 0, Final residual = 0, No Iterations 0
time step continuity errors : sum local = 1.9928797e-10, global = 1.9209351e-12, cumulative = 5.9652111e-11
GAMG:  Solving for p, Initial residual = 0.0017747578, Final residual = 7.3156022e-06, No Iterations 4
GAMG:  Solving for p, Initial residual = 0.00019251829, Final residual = 5.044409e-06, No Iterations 2
GAMG:  Solving for p, Initial residual = 2.6186241e-05, Final residual = 3.1140439e-06, No Iterations 1
GAMG:  Solving for p, Initial residual = 6.0784927e-06, Final residual = 6.0784927e-06, No Iterations 0
diagonal:  Solving for rho, Initial residual = 0, Final residual = 0, No Iterations 0
time step continuity errors : sum local = 5.7622338e-10, global = 8.4565206e-13, cumulative = 6.0497763e-11
smoothSolver:  Solving for epsilon, Initial residual = 3.9743508e-05, Final residual = 3.6057205e-07, No Iterations 1
bounding epsilon, min: -4.1673568 max: 15249.343 average: 14.115348
smoothSolver:  Solving for k, Initial residual = 0.0030356793, Final residual = 5.8978735e-06, No Iterations 2
PIMPLE: Iteration 14
smoothSolver:  Solving for Ux, Initial residual = 0.0011234981, Final residual = 9.9392866e-06, No Iterations 2
smoothSolver:  Solving for Uy, Initial residual = 9.4662479e-05, Final residual = 4.9692597e-06, No Iterations 1
smoothSolver:  Solving for Uz, Initial residual = 0.0016115268, Final residual = 7.4008319e-06, No Iterations 2
smoothSolver:  Solving for h, Initial residual = 0.0012754562, Final residual = 1.5317339e-06, No Iterations 2
GAMG:  Solving for p, Initial residual = 0.0025821244, Final residual = 9.6182114e-06, No Iterations 4
GAMG:  Solving for p, Initial residual = 0.00026818194, Final residual = 6.85407e-06, No Iterations 2
GAMG:  Solving for p, Initial residual = 3.631417e-05, Final residual = 4.3108007e-06, No Iterations 1
GAMG:  Solving for p, Initial residual = 8.4923277e-06, Final residual = 8.4923277e-06, No Iterations 0
diagonal:  Solving for rho, Initial residual = 0, Final residual = 0, No Iterations 0
time step continuity errors : sum local = 8.049637e-10, global = 2.9273189e-13, cumulative = 6.0790495e-11
GAMG:  Solving for p, Initial residual = 0.0014897121, Final residual = 1.4074439e-05, No Iterations 3
GAMG:  Solving for p, Initial residual = 0.00015835673, Final residual = 4.2071669e-06, No Iterations 2
GAMG:  Solving for p, Initial residual = 2.1767046e-05, Final residual = 2.7951105e-06, No Iterations 1
GAMG:  Solving for p, Initial residual = 5.3161776e-06, Final residual = 5.3161776e-06, No Iterations 0
diagonal:  Solving for rho, Initial residual = 0, Final residual = 0, No Iterations 0
time step continuity errors : sum local = 5.0392581e-10, global = 2.5537329e-13, cumulative = 6.1045868e-11
smoothSolver:  Solving for epsilon, Initial residual = 3.670212e-05, Final residual = 4.0101183e-07, No Iterations 1
bounding epsilon, min: -4.9270678 max: 15245.755 average: 14.08063
smoothSolver:  Solving for k, Initial residual = 0.0024014384, Final residual = 4.5283461e-06, No Iterations 2
PIMPLE: Iteration 15
smoothSolver:  Solving for Ux, Initial residual = 0.00095724301, Final residual = 8.5394435e-06, No Iterations 2
smoothSolver:  Solving for Uy, Initial residual = 8.0940586e-05, Final residual = 3.6930041e-06, No Iterations 1
smoothSolver:  Solving for Uz, Initial residual = 0.0012253673, Final residual = 4.5553542e-06, No Iterations 2
smoothSolver:  Solving for h, Initial residual = 0.00088950334, Final residual = 9.4711672e-07, No Iterations 2
GAMG:  Solving for p, Initial residual = 0.0020872895, Final residual = 1.9617076e-05, No Iterations 3
GAMG:  Solving for p, Initial residual = 0.0002170942, Final residual = 5.3055079e-06, No Iterations 2
GAMG:  Solving for p, Initial residual = 3.0084728e-05, Final residual = 3.5212083e-06, No Iterations 1
GAMG:  Solving for p, Initial residual = 6.9192558e-06, Final residual = 6.9192558e-06, No Iterations 0
diagonal:  Solving for rho, Initial residual = 0, Final residual = 0, No Iterations 0
time step continuity errors : sum local = 6.5605948e-10, global = 3.4359545e-12, cumulative = 6.4481823e-11
GAMG:  Solving for p, Initial residual = 0.0012226563, Final residual = 1.0631564e-05, No Iterations 3
GAMG:  Solving for p, Initial residual = 0.00012734739, Final residual = 3.017135e-06, No Iterations 2
GAMG:  Solving for p, Initial residual = 1.7929176e-05, Final residual = 2.0109235e-06, No Iterations 1
GAMG:  Solving for p, Initial residual = 4.0794263e-06, Final residual = 4.0794263e-06, No Iterations 0
diagonal:  Solving for rho, Initial residual = 0, Final residual = 0, No Iterations 0
time step continuity errors : sum local = 3.8680901e-10, global = 1.7109579e-12, cumulative = 6.6192781e-11
smoothSolver:  Solving for epsilon, Initial residual = 2.9332614e-05, Final residual = 2.6627221e-07, No Iterations 1
bounding epsilon, min: -4.8389764 max: 15243.719 average: 14.053431
smoothSolver:  Solving for k, Initial residual = 0.00174701, Final residual = 2.6474914e-06, No Iterations 2
PIMPLE: Iteration 16
smoothSolver:  Solving for Ux, Initial residual = 0.00081215265, Final residual = 7.3470365e-06, No Iterations 2
smoothSolver:  Solving for Uy, Initial residual = 6.8456565e-05, Final residual = 3.4355346e-06, No Iterations 1
smoothSolver:  Solving for Uz, Initial residual = 0.0011749138, Final residual = 6.7193019e-06, No Iterations 2
smoothSolver:  Solving for h, Initial residual = 0.0006232832, Final residual = 8.3445304e-07, No Iterations 2
GAMG:  Solving for p, Initial residual = 0.0017726309, Final residual = 1.4729181e-05, No Iterations 3
GAMG:  Solving for p, Initial residual = 0.00018913828, Final residual = 4.3143944e-06, No Iterations 2
GAMG:  Solving for p, Initial residual = 2.6948046e-05, Final residual = 2.9953e-06, No Iterations 1
GAMG:  Solving for p, Initial residual = 6.2471826e-06, Final residual = 6.2471826e-06, No Iterations 0
diagonal:  Solving for rho, Initial residual = 0, Final residual = 0, No Iterations 0
time step continuity errors : sum local = 5.9225079e-10, global = 4.8323413e-12, cumulative = 7.1025122e-11
GAMG:  Solving for p, Initial residual = 0.0010501604, Final residual = 8.1889459e-06, No Iterations 3
GAMG:  Solving for p, Initial residual = 0.00011206399, Final residual = 9.7910801e-06, No Iterations 1
GAMG:  Solving for p, Initial residual = 1.9610457e-05, Final residual = 2.8818109e-06, No Iterations 1
GAMG:  Solving for p, Initial residual = 4.8674009e-06, Final residual = 4.8674009e-06, No Iterations 0
diagonal:  Solving for rho, Initial residual = 0, Final residual = 0, No Iterations 0
time step continuity errors : sum local = 4.6146078e-10, global = 4.1796512e-12, cumulative = 7.5204773e-11
smoothSolver:  Solving for epsilon, Initial residual = 2.2659973e-05, Final residual = 2.3599653e-07, No Iterations 1
bounding epsilon, min: -4.6453053 max: 15242.517 average: 14.033351
smoothSolver:  Solving for k, Initial residual = 0.0014038085, Final residual = 5.5897706e-06, No Iterations 2
PIMPLE: Iteration 17
smoothSolver:  Solving for Ux, Initial residual = 0.0019925075, Final residual = 8.8672778e-06, No Iterations 3
smoothSolver:  Solving for Uy, Initial residual = 0.00018534394, Final residual = 6.4406658e-06, No Iterations 1
smoothSolver:  Solving for Uz, Initial residual = 0.0024770761, Final residual = 8.0868271e-06, No Iterations 3
smoothSolver:  Solving for h, Initial residual = 0.00064436232, Final residual = 2.4406049e-06, No Iterations 2
GAMG:  Solving for p, Initial residual = 0.0016122047, Final residual = 1.343999e-05, No Iterations 3
GAMG:  Solving for p, Initial residual = 0.00021373274, Final residual = 4.8884735e-06, No Iterations 2
GAMG:  Solving for p, Initial residual = 3.2580093e-05, Final residual = 3.5690894e-06, No Iterations 1
GAMG:  Solving for p, Initial residual = 7.4615471e-06, Final residual = 7.4615471e-06, No Iterations 0
diagonal:  Solving for rho, Initial residual = 0, Final residual = 0, No Iterations 0
time step continuity errors : sum local = 7.0712263e-10, global = 3.8245294e-12, cumulative = 7.9029303e-11
GAMG:  Solving for p, Initial residual = 0.00097261436, Final residual = 7.5192011e-06, No Iterations 3
GAMG:  Solving for p, Initial residual = 0.00013213291, Final residual = 2.9664763e-06, No Iterations 2
GAMG:  Solving for p, Initial residual = 2.0649246e-05, Final residual = 2.1983058e-06, No Iterations 1
GAMG:  Solving for p, Initial residual = 4.7039987e-06, Final residual = 4.7039987e-06, No Iterations 0
diagonal:  Solving for rho, Initial residual = 0, Final residual = 0, No Iterations 0
time step continuity errors : sum local = 4.4581507e-10, global = 2.1590411e-12, cumulative = 8.1188344e-11
smoothSolver:  Solving for epsilon, Initial residual = 2.28909e-05, Final residual = 7.126309e-07, No Iterations 1
bounding epsilon, min: -4.973389 max: 15241.788 average: 14.019714
smoothSolver:  Solving for k, Initial residual = 0.0034438422, Final residual = 5.0337172e-06, No Iterations 3
PIMPLE: Iteration 18
smoothSolver:  Solving for Ux, Initial residual = 0.00069494407, Final residual = 4.9838138e-06, No Iterations 2
smoothSolver:  Solving for Uy, Initial residual = 6.0292838e-05, Final residual = 2.9080831e-06, No Iterations 1
smoothSolver:  Solving for Uz, Initial residual = 0.00095456997, Final residual = 3.4258944e-06, No Iterations 2
smoothSolver:  Solving for h, Initial residual = 0.0003358471, Final residual = 6.3893472e-06, No Iterations 1
GAMG:  Solving for p, Initial residual = 0.0013890154, Final residual = 9.5035886e-06, No Iterations 3
GAMG:  Solving for p, Initial residual = 0.00015281217, Final residual = 3.5233204e-06, No Iterations 2
GAMG:  Solving for p, Initial residual = 2.576637e-05, Final residual = 2.7263209e-06, No Iterations 1
GAMG:  Solving for p, Initial residual = 5.9635678e-06, Final residual = 5.9635678e-06, No Iterations 0
diagonal:  Solving for rho, Initial residual = 0, Final residual = 0, No Iterations 0
time step continuity errors : sum local = 5.6519431e-10, global = 2.0301216e-12, cumulative = 8.3218465e-11
GAMG:  Solving for p, Initial residual = 0.00085062819, Final residual = 5.4444511e-06, No Iterations 3
GAMG:  Solving for p, Initial residual = 9.3509611e-05, Final residual = 8.3267858e-06, No Iterations 1
GAMG:  Solving for p, Initial residual = 1.8457417e-05, Final residual = 2.4028536e-06, No Iterations 1
GAMG:  Solving for p, Initial residual = 4.507729e-06, Final residual = 4.507729e-06, No Iterations 0
diagonal:  Solving for rho, Initial residual = 0, Final residual = 0, No Iterations 0
time step continuity errors : sum local = 4.272204e-10, global = 2.6006818e-12, cumulative = 8.5819147e-11
smoothSolver:  Solving for epsilon, Initial residual = 1.1593908e-05, Final residual = 1.7303919e-07, No Iterations 1
bounding epsilon, min: -4.907191 max: 15241.342 average: 14.011428
smoothSolver:  Solving for k, Initial residual = 0.0010101338, Final residual = 2.7559557e-06, No Iterations 2
PIMPLE: Iteration 19
smoothSolver:  Solving for Ux, Initial residual = 0.00072122583, Final residual = 9.0814419e-06, No Iterations 2
smoothSolver:  Solving for Uy, Initial residual = 6.0006975e-05, Final residual = 3.5245704e-06, No Iterations 1
smoothSolver:  Solving for Uz, Initial residual = 0.00081119326, Final residual = 3.4440206e-06, No Iterations 2
smoothSolver:  Solving for h, Initial residual = 0.00028120687, Final residual = 7.4117957e-06, No Iterations 1
GAMG:  Solving for p, Initial residual = 0.0011570346, Final residual = 8.7440512e-06, No Iterations 3
GAMG:  Solving for p, Initial residual = 0.00013588749, Final residual = 3.0263021e-06, No Iterations 2
GAMG:  Solving for p, Initial residual = 2.137122e-05, Final residual = 2.3172866e-06, No Iterations 1
GAMG:  Solving for p, Initial residual = 4.9911666e-06, Final residual = 4.9911666e-06, No Iterations 0
diagonal:  Solving for rho, Initial residual = 0, Final residual = 0, No Iterations 0
time step continuity errors : sum local = 4.7307973e-10, global = 2.1100722e-12, cumulative = 8.7929219e-11
GAMG:  Solving for p, Initial residual = 0.0007075246, Final residual = 4.9148245e-06, No Iterations 3
GAMG:  Solving for p, Initial residual = 8.2701381e-05, Final residual = 7.1711258e-06, No Iterations 1
GAMG:  Solving for p, Initial residual = 1.5536591e-05, Final residual = 2.1468036e-06, No Iterations 1
GAMG:  Solving for p, Initial residual = 3.9362672e-06, Final residual = 3.9362672e-06, No Iterations 0
diagonal:  Solving for rho, Initial residual = 0, Final residual = 0, No Iterations 0
time step continuity errors : sum local = 3.7309265e-10, global = 2.1033129e-12, cumulative = 9.0032532e-11
smoothSolver:  Solving for epsilon, Initial residual = 8.6618479e-06, Final residual = 8.6618479e-06, No Iterations 0
smoothSolver:  Solving for k, Initial residual = 0.00089281382, Final residual = 2.7587209e-06, No Iterations 2
PIMPLE: Iteration 20
smoothSolver:  Solving for Ux, Initial residual = 0.00021741298, Final residual = 8.8884345e-06, No Iterations 1
smoothSolver:  Solving for Uy, Initial residual = 1.7419846e-05, Final residual = 7.1725139e-07, No Iterations 1
smoothSolver:  Solving for Uz, Initial residual = 0.00030413078, Final residual = 9.8160278e-06, No Iterations 1
smoothSolver:  Solving for h, Initial residual = 0.00015252384, Final residual = 2.9737842e-06, No Iterations 1
GAMG:  Solving for p, Initial residual = 0.00087654009, Final residual = 6.3984694e-06, No Iterations 3
GAMG:  Solving for p, Initial residual = 9.8355961e-05, Final residual = 8.51415e-06, No Iterations 1
GAMG:  Solving for p, Initial residual = 1.7967831e-05, Final residual = 2.5887887e-06, No Iterations 1
GAMG:  Solving for p, Initial residual = 4.6145687e-06, Final residual = 4.6145687e-06, No Iterations 0
diagonal:  Solving for rho, Initial residual = 0, Final residual = 0, No Iterations 0
time step continuity errors : sum local = 4.3737572e-10, global = 2.147613e-12, cumulative = 9.2180145e-11
GAMG:  Solving for p, Initial residual = 0.00053978328, Final residual = 3.6465776e-06, No Iterations 3
GAMG:  Solving for p, Initial residual = 6.0012935e-05, Final residual = 5.1744545e-06, No Iterations 1
GAMG:  Solving for p, Initial residual = 1.1072306e-05, Final residual = 1.5430892e-06, No Iterations 1
GAMG:  Solving for p, Initial residual = 2.7998023e-06, Final residual = 2.7998023e-06, No Iterations 0
diagonal:  Solving for rho, Initial residual = 0, Final residual = 0, No Iterations 0
time step continuity errors : sum local = 2.6537113e-10, global = 1.3208315e-12, cumulative = 9.3500977e-11
smoothSolver:  Solving for epsilon, Initial residual = 9.4146567e-06, Final residual = 9.4146567e-06, No Iterations 0
smoothSolver:  Solving for k, Initial residual = 0.00062238846, Final residual = 1.1662187e-06, No Iterations 2
PIMPLE: Not converged within 20 iterations
ExecutionTime = 184.78 s  ClockTime = 185 s

Courant Number mean: 0.024171148 max: 0.67161238
deltaT = 1.44e-05
Time = 2.64e-05

PIMPLE: Iteration 1
diagonal:  Solving for rho, Initial residual = 0, Final residual = 0, No Iterations 0
smoothSolver:  Solving for Ux, Initial residual = 0.28170273, Final residual = 8.851102e-06, No Iterations 4
smoothSolver:  Solving for Uy, Initial residual = 0.042130072, Final residual = 5.2770686e-06, No Iterations 3
smoothSolver:  Solving for Uz, Initial residual = 0.2836676, Final residual = 5.7019723e-06, No Iterations 4
smoothSolver:  Solving for h, Initial residual = 0.16657189, Final residual = 6.9721586e-06, No Iterations 3
GAMG:  Solving for p, Initial residual = 0.39249228, Final residual = 0.0023057087, No Iterations 5
GAMG:  Solving for p, Initial residual = 0.09705061, Final residual = 0.00078406181, No Iterations 3
GAMG:  Solving for p, Initial residual = 0.021059899, Final residual = 0.0001881483, No Iterations 3
GAMG:  Solving for p, Initial residual = 0.0057191864, Final residual = 3.7104985e-05, No Iterations 3
diagonal:  Solving for rho, Initial residual = 0, Final residual = 0, No Iterations 0
time step continuity errors : sum local = 3.7890921e-09, global = 1.3262082e-12, cumulative = 9.4827185e-11
GAMG:  Solving for p, Initial residual = 0.22613561, Final residual = 0.0012840854, No Iterations 5
GAMG:  Solving for p, Initial residual = 0.050084772, Final residual = 0.00040376391, No Iterations 3
GAMG:  Solving for p, Initial residual = 0.01055622, Final residual = 9.4859483e-05, No Iterations 3
GAMG:  Solving for p, Initial residual = 0.0028881938, Final residual = 6.603146e-06, No Iterations 4
diagonal:  Solving for rho, Initial residual = 0, Final residual = 0, No Iterations 0
time step continuity errors : sum local = 6.7097846e-10, global = 1.2474654e-12, cumulative = 9.607465e-11
smoothSolver:  Solving for epsilon, Initial residual = 0.0018347052, Final residual = 2.3277808e-06, No Iterations 1
bounding epsilon, min: -3.3743505 max: 15161.217 average: 14.195219
smoothSolver:  Solving for k, Initial residual = 0.079837575, Final residual = 4.2580809e-06, No Iterations 3
PIMPLE: Iteration 2
smoothSolver:  Solving for Ux, Initial residual = 0.06794096, Final residual = 1.7171272e-06, No Iterations 4
smoothSolver:  Solving for Uy, Initial residual = 0.0086611617, Final residual = 1.0559143e-06, No Iterations 3
smoothSolver:  Solving for Uz, Initial residual = 0.078800393, Final residual = 8.7109684e-06, No Iterations 3
smoothSolver:  Solving for h, Initial residual = 0.047986857, Final residual = 2.3871541e-06, No Iterations 3
GAMG:  Solving for p, Initial residual = 0.25924573, Final residual = 0.0013090202, No Iterations 5
GAMG:  Solving for p, Initial residual = 0.061634014, Final residual = 0.00046576363, No Iterations 3
GAMG:  Solving for p, Initial residual = 0.013130739, Final residual = 0.00011826684, No Iterations 3
GAMG:  Solving for p, Initial residual = 0.0035731218, Final residual = 2.1917589e-05, No Iterations 3
diagonal:  Solving for rho, Initial residual = 0, Final residual = 0, No Iterations 0
time step continuity errors : sum local = 2.4711397e-09, global = 9.1573498e-12, cumulative = 1.05232e-10
GAMG:  Solving for p, Initial residual = 0.15169997, Final residual = 0.00072927397, No Iterations 5
GAMG:  Solving for p, Initial residual = 0.031250953, Final residual = 0.00023544434, No Iterations 3
GAMG:  Solving for p, Initial residual = 0.0065725535, Final residual = 5.941123e-05, No Iterations 3
GAMG:  Solving for p, Initial residual = 0.0018012709, Final residual = 3.7070562e-06, No Iterations 4
diagonal:  Solving for rho, Initial residual = 0, Final residual = 0, No Iterations 0
time step continuity errors : sum local = 4.154848e-10, global = 2.4743223e-12, cumulative = 1.0770632e-10
smoothSolver:  Solving for epsilon, Initial residual = 0.00036240538, Final residual = 3.4539928e-06, No Iterations 1
bounding epsilon, min: -1.6982967 max: 10896.719 average: 13.084341
smoothSolver:  Solving for k, Initial residual = 0.020901929, Final residual = 9.1039371e-07, No Iterations 3
PIMPLE: Iteration 3
smoothSolver:  Solving for Ux, Initial residual = 0.022247553, Final residual = 1.8242521e-06, No Iterations 3
smoothSolver:  Solving for Uy, Initial residual = 0.0026892649, Final residual = 3.5565001e-06, No Iterations 2
smoothSolver:  Solving for Uz, Initial residual = 0.029705378, Final residual = 4.1292911e-06, No Iterations 3
smoothSolver:  Solving for h, Initial residual = 0.045005823, Final residual = 1.7661598e-06, No Iterations 3
GAMG:  Solving for p, Initial residual = 0.14615056, Final residual = 0.00089562632, No Iterations 5
GAMG:  Solving for p, Initial residual = 0.029602388, Final residual = 0.00023549511, No Iterations 3
GAMG:  Solving for p, Initial residual = 0.0059461791, Final residual = 5.8883267e-05, No Iterations 3
GAMG:  Solving for p, Initial residual = 0.0016044715, Final residual = 1.0751756e-05, No Iterations 3
diagonal:  Solving for rho, Initial residual = 0, Final residual = 0, No Iterations 0
time step continuity errors : sum local = 1.2743375e-09, global = 5.0956919e-12, cumulative = 1.1280201e-10
GAMG:  Solving for p, Initial residual = 0.071252207, Final residual = 0.00041200441, No Iterations 5
GAMG:  Solving for p, Initial residual = 0.014788711, Final residual = 0.00011712114, No Iterations 3
GAMG:  Solving for p, Initial residual = 0.002955146, Final residual = 2.9423972e-05, No Iterations 3
GAMG:  Solving for p, Initial residual = 0.00080343134, Final residual = 5.3439263e-06, No Iterations 3
diagonal:  Solving for rho, Initial residual = 0, Final residual = 0, No Iterations 0
time step continuity errors : sum local = 6.3254132e-10, global = 2.0925905e-12, cumulative = 1.148946e-10
smoothSolver:  Solving for epsilon, Initial residual = 0.00035839047, Final residual = 3.7311813e-06, No Iterations 1
smoothSolver:  Solving for k, Initial residual = 0.0070736397, Final residual = 5.1583411e-06, No Iterations 2
PIMPLE: Iteration 4
smoothSolver:  Solving for Ux, Initial residual = 0.013271256, Final residual = 1.6165535e-06, No Iterations 3
smoothSolver:  Solving for Uy, Initial residual = 0.0014739625, Final residual = 2.4374374e-06, No Iterations 2
smoothSolver:  Solving for Uz, Initial residual = 0.012790584, Final residual = 1.1179401e-06, No Iterations 3
smoothSolver:  Solving for h, Initial residual = 0.039732659, Final residual = 1.1578412e-06, No Iterations 3
GAMG:  Solving for p, Initial residual = 0.065559988, Final residual = 0.00050993024, No Iterations 5
GAMG:  Solving for p, Initial residual = 0.011589664, Final residual = 0.00010084574, No Iterations 3
GAMG:  Solving for p, Initial residual = 0.0021099344, Final residual = 9.0979696e-06, No Iterations 4
GAMG:  Solving for p, Initial residual = 0.0005614419, Final residual = 3.8127765e-06, No Iterations 3
diagonal:  Solving for rho, Initial residual = 0, Final residual = 0, No Iterations 0
time step continuity errors : sum local = 4.6487836e-10, global = 4.1787858e-13, cumulative = 1.1531248e-10
GAMG:  Solving for p, Initial residual = 0.032235986, Final residual = 0.00023600111, No Iterations 5
GAMG:  Solving for p, Initial residual = 0.0058029794, Final residual = 5.0116493e-05, No Iterations 3
GAMG:  Solving for p, Initial residual = 0.0010444023, Final residual = 4.5530959e-06, No Iterations 4
GAMG:  Solving for p, Initial residual = 0.00027976654, Final residual = 5.9972774e-06, No Iterations 2
diagonal:  Solving for rho, Initial residual = 0, Final residual = 0, No Iterations 0
time step continuity errors : sum local = 7.3100028e-10, global = 1.7341327e-12, cumulative = 1.1704662e-10
smoothSolver:  Solving for epsilon, Initial residual = 0.00027491595, Final residual = 2.8877915e-06, No Iterations 1
smoothSolver:  Solving for k, Initial residual = 0.0026749481, Final residual = 2.0344431e-06, No Iterations 2
PIMPLE: Iteration 5
smoothSolver:  Solving for Ux, Initial residual = 0.0081355646, Final residual = 8.7546571e-07, No Iterations 3
smoothSolver:  Solving for Uy, Initial residual = 0.00087281813, Final residual = 1.4366147e-06, No Iterations 2
smoothSolver:  Solving for Uz, Initial residual = 0.0061303177, Final residual = 6.6335024e-06, No Iterations 2
smoothSolver:  Solving for h, Initial residual = 0.030795462, Final residual = 6.9118349e-07, No Iterations 3
GAMG:  Solving for p, Initial residual = 0.033878464, Final residual = 0.00025809828, No Iterations 5
GAMG:  Solving for p, Initial residual = 0.004457734, Final residual = 4.0595534e-05, No Iterations 3
GAMG:  Solving for p, Initial residual = 0.00070221785, Final residual = 8.5602885e-06, No Iterations 3
GAMG:  Solving for p, Initial residual = 0.0001733688, Final residual = 4.4370794e-06, No Iterations 2
diagonal:  Solving for rho, Initial residual = 0, Final residual = 0, No Iterations 0
time step continuity errors : sum local = 5.5198559e-10, global = -2.8595994e-12, cumulative = 1.1418702e-10
GAMG:  Solving for p, Initial residual = 0.017043567, Final residual = 0.00012311517, No Iterations 5
GAMG:  Solving for p, Initial residual = 0.0023316103, Final residual = 2.0634135e-05, No Iterations 3
GAMG:  Solving for p, Initial residual = 0.00037346682, Final residual = 4.3588564e-06, No Iterations 3
GAMG:  Solving for p, Initial residual = 9.2319995e-05, Final residual = 8.5423062e-06, No Iterations 1
diagonal:  Solving for rho, Initial residual = 0, Final residual = 0, No Iterations 0
time step continuity errors : sum local = 1.0624707e-09, global = -2.4270591e-12, cumulative = 1.1175996e-10
smoothSolver:  Solving for epsilon, Initial residual = 0.00017621011, Final residual = 1.8124982e-06, No Iterations 1
smoothSolver:  Solving for k, Initial residual = 0.0021218195, Final residual = 1.3501095e-06, No Iterations 2
PIMPLE: Iteration 6
smoothSolver:  Solving for Ux, Initial residual = 0.0047056286, Final residual = 6.3788898e-06, No Iterations 2
smoothSolver:  Solving for Uy, Initial residual = 0.00049859571, Final residual = 7.3935281e-07, No Iterations 2
smoothSolver:  Solving for Uz, Initial residual = 0.0033032791, Final residual = 3.1487799e-06, No Iterations 2
smoothSolver:  Solving for h, Initial residual = 0.020757625, Final residual = 9.012661e-06, No Iterations 2
GAMG:  Solving for p, Initial residual = 0.019566509, Final residual = 0.00012835267, No Iterations 5
GAMG:  Solving for p, Initial residual = 0.0023870408, Final residual = 2.1388222e-05, No Iterations 3
GAMG:  Solving for p, Initial residual = 0.00035929944, Final residual = 4.0172103e-06, No Iterations 3
GAMG:  Solving for p, Initial residual = 8.0414929e-05, Final residual = 7.7725324e-06, No Iterations 1
diagonal:  Solving for rho, Initial residual = 0, Final residual = 0, No Iterations 0
time step continuity errors : sum local = 9.8204388e-10, global = -4.0079989e-12, cumulative = 1.0775196e-10
GAMG:  Solving for p, Initial residual = 0.010019408, Final residual = 6.2242544e-05, No Iterations 5
GAMG:  Solving for p, Initial residual = 0.0012555908, Final residual = 1.1071447e-05, No Iterations 3
GAMG:  Solving for p, Initial residual = 0.00019208879, Final residual = 6.002366e-06, No Iterations 2
GAMG:  Solving for p, Initial residual = 4.4205526e-05, Final residual = 4.7123024e-06, No Iterations 1
diagonal:  Solving for rho, Initial residual = 0, Final residual = 0, No Iterations 0
time step continuity errors : sum local = 5.9528324e-10, global = 1.5746266e-12, cumulative = 1.0932659e-10
smoothSolver:  Solving for epsilon, Initial residual = 9.4933276e-05, Final residual = 9.4355185e-07, No Iterations 1
smoothSolver:  Solving for k, Initial residual = 0.0023149818, Final residual = 1.1974993e-06, No Iterations 2
PIMPLE: Iteration 7
smoothSolver:  Solving for Ux, Initial residual = 0.0026848766, Final residual = 3.0355347e-06, No Iterations 2
smoothSolver:  Solving for Uy, Initial residual = 0.00028225997, Final residual = 8.3275126e-06, No Iterations 1
smoothSolver:  Solving for Uz, Initial residual = 0.0019749978, Final residual = 1.8384393e-06, No Iterations 2
smoothSolver:  Solving for h, Initial residual = 0.012130451, Final residual = 4.9323413e-06, No Iterations 2
GAMG:  Solving for p, Initial residual = 0.011770994, Final residual = 6.6903082e-05, No Iterations 5
GAMG:  Solving for p, Initial residual = 0.00137699, Final residual = 1.2498103e-05, No Iterations 3
GAMG:  Solving for p, Initial residual = 0.000194674, Final residual = 6.6732883e-06, No Iterations 2
GAMG:  Solving for p, Initial residual = 4.0938212e-05, Final residual = 4.8429099e-06, No Iterations 1
diagonal:  Solving for rho, Initial residual = 0, Final residual = 0, No Iterations 0
time step continuity errors : sum local = 6.1917468e-10, global = 3.6641584e-12, cumulative = 1.1299074e-10
GAMG:  Solving for p, Initial residual = 0.0061591461, Final residual = 3.266278e-05, No Iterations 5
GAMG:  Solving for p, Initial residual = 0.00072675429, Final residual = 6.4877368e-06, No Iterations 3
GAMG:  Solving for p, Initial residual = 0.00010463882, Final residual = 3.5121935e-06, No Iterations 2
GAMG:  Solving for p, Initial residual = 2.2126321e-05, Final residual = 2.5674293e-06, No Iterations 1
diagonal:  Solving for rho, Initial residual = 0, Final residual = 0, No Iterations 0
time step continuity errors : sum local = 3.2819472e-10, global = 1.7188765e-12, cumulative = 1.1470962e-10
smoothSolver:  Solving for epsilon, Initial residual = 5.5797307e-05, Final residual = 5.4399595e-07, No Iterations 1
smoothSolver:  Solving for k, Initial residual = 0.002293578, Final residual = 9.1726986e-07, No Iterations 2
PIMPLE: Iteration 8
smoothSolver:  Solving for Ux, Initial residual = 0.0015806729, Final residual = 1.4977788e-06, No Iterations 2
smoothSolver:  Solving for Uy, Initial residual = 0.00016457283, Final residual = 4.5238883e-06, No Iterations 1
smoothSolver:  Solving for Uz, Initial residual = 0.0012293879, Final residual = 1.1001083e-06, No Iterations 2
smoothSolver:  Solving for h, Initial residual = 0.0072848733, Final residual = 2.7863587e-06, No Iterations 2
GAMG:  Solving for p, Initial residual = 0.0073882506, Final residual = 3.6562672e-05, No Iterations 5
GAMG:  Solving for p, Initial residual = 0.00082131157, Final residual = 7.2874614e-06, No Iterations 3
GAMG:  Solving for p, Initial residual = 0.0001099191, Final residual = 3.7462678e-06, No Iterations 2
GAMG:  Solving for p, Initial residual = 2.2409175e-05, Final residual = 2.7821347e-06, No Iterations 1
diagonal:  Solving for rho, Initial residual = 0, Final residual = 0, No Iterations 0
time step continuity errors : sum local = 3.5877849e-10, global = 2.4224064e-12, cumulative = 1.1713203e-10
GAMG:  Solving for p, Initial residual = 0.0039215262, Final residual = 1.7928885e-05, No Iterations 5
GAMG:  Solving for p, Initial residual = 0.00043540188, Final residual = 3.8011512e-06, No Iterations 3
GAMG:  Solving for p, Initial residual = 5.9183247e-05, Final residual = 6.8026537e-06, No Iterations 1
GAMG:  Solving for p, Initial residual = 1.4118353e-05, Final residual = 2.3271526e-06, No Iterations 1
diagonal:  Solving for rho, Initial residual = 0, Final residual = 0, No Iterations 0
time step continuity errors : sum local = 3.0006402e-10, global = 2.9789091e-12, cumulative = 1.2011094e-10
smoothSolver:  Solving for epsilon, Initial residual = 5.6902171e-05, Final residual = 4.8476696e-07, No Iterations 1
smoothSolver:  Solving for k, Initial residual = 0.0020714418, Final residual = 6.43748e-07, No Iterations 2
PIMPLE: Iteration 9
smoothSolver:  Solving for Ux, Initial residual = 0.00096090509, Final residual = 8.4242607e-07, No Iterations 2
smoothSolver:  Solving for Uy, Initial residual = 9.9450491e-05, Final residual = 2.6034692e-06, No Iterations 1
smoothSolver:  Solving for Uz, Initial residual = 0.00077550021, Final residual = 6.4847872e-07, No Iterations 2
smoothSolver:  Solving for h, Initial residual = 0.0044902828, Final residual = 1.6175564e-06, No Iterations 2
GAMG:  Solving for p, Initial residual = 0.0047846124, Final residual = 2.0703822e-05, No Iterations 5
GAMG:  Solving for p, Initial residual = 0.00049545117, Final residual = 4.3907135e-06, No Iterations 3
GAMG:  Solving for p, Initial residual = 6.0708648e-05, Final residual = 7.196045e-06, No Iterations 1
GAMG:  Solving for p, Initial residual = 1.4226731e-05, Final residual = 2.5252963e-06, No Iterations 1
diagonal:  Solving for rho, Initial residual = 0, Final residual = 0, No Iterations 0
time step continuity errors : sum local = 3.2763958e-10, global = 1.8586601e-12, cumulative = 1.219696e-10
GAMG:  Solving for p, Initial residual = 0.0025625759, Final residual = 2.4296707e-05, No Iterations 4
GAMG:  Solving for p, Initial residual = 0.00027289852, Final residual = 7.7361269e-06, No Iterations 2
GAMG:  Solving for p, Initial residual = 3.6185251e-05, Final residual = 5.2163666e-06, No Iterations 1
GAMG:  Solving for p, Initial residual = 9.1968075e-06, Final residual = 9.1968075e-06, No Iterations 0
diagonal:  Solving for rho, Initial residual = 0, Final residual = 0, No Iterations 0
time step continuity errors : sum local = 1.1931035e-09, global = 1.8827095e-13, cumulative = 1.2215787e-10
smoothSolver:  Solving for epsilon, Initial residual = 6.9157093e-05, Final residual = 5.3579337e-07, No Iterations 1
bounding epsilon, min: -0.48391435 max: 8550.9201 average: 12.912489
smoothSolver:  Solving for k, Initial residual = 0.0017098898, Final residual = 4.3596224e-07, No Iterations 2
PIMPLE: Iteration 10
smoothSolver:  Solving for Ux, Initial residual = 0.00059258663, Final residual = 4.9394437e-07, No Iterations 2
smoothSolver:  Solving for Uy, Initial residual = 6.1565984e-05, Final residual = 1.5534248e-06, No Iterations 1
smoothSolver:  Solving for Uz, Initial residual = 0.00049151436, Final residual = 3.7458633e-07, No Iterations 2
smoothSolver:  Solving for h, Initial residual = 0.0028323208, Final residual = 9.6143029e-07, No Iterations 2
GAMG:  Solving for p, Initial residual = 0.0031605351, Final residual = 2.9210842e-05, No Iterations 4
GAMG:  Solving for p, Initial residual = 0.00031772818, Final residual = 9.1200428e-06, No Iterations 2
GAMG:  Solving for p, Initial residual = 3.8690417e-05, Final residual = 5.8738621e-06, No Iterations 1
GAMG:  Solving for p, Initial residual = 9.6640187e-06, Final residual = 9.6640187e-06, No Iterations 0
diagonal:  Solving for rho, Initial residual = 0, Final residual = 0, No Iterations 0
time step continuity errors : sum local = 1.2591107e-09, global = -4.957176e-12, cumulative = 1.1720069e-10
GAMG:  Solving for p, Initial residual = 0.0017017533, Final residual = 1.4369004e-05, No Iterations 4
GAMG:  Solving for p, Initial residual = 0.00017037572, Final residual = 4.8093845e-06, No Iterations 2
GAMG:  Solving for p, Initial residual = 2.1086704e-05, Final residual = 3.1394169e-06, No Iterations 1
GAMG:  Solving for p, Initial residual = 5.2479922e-06, Final residual = 5.2479922e-06, No Iterations 0
diagonal:  Solving for rho, Initial residual = 0, Final residual = 0, No Iterations 0
time step continuity errors : sum local = 6.8370587e-10, global = -2.1032266e-12, cumulative = 1.1509746e-10
smoothSolver:  Solving for epsilon, Initial residual = 7.6800024e-05, Final residual = 6.1394211e-07, No Iterations 1
smoothSolver:  Solving for k, Initial residual = 0.0013032486, Final residual = 2.805445e-07, No Iterations 2
PIMPLE: Iteration 11
smoothSolver:  Solving for Ux, Initial residual = 0.00036961378, Final residual = 8.1070124e-06, No Iterations 1
smoothSolver:  Solving for Uy, Initial residual = 3.8700346e-05, Final residual = 9.443215e-07, No Iterations 1
smoothSolver:  Solving for Uz, Initial residual = 0.00031260708, Final residual = 6.3574922e-06, No Iterations 1
smoothSolver:  Solving for h, Initial residual = 0.0018218505, Final residual = 5.8411128e-07, No Iterations 2
GAMG:  Solving for p, Initial residual = 0.0021127207, Final residual = 1.7700096e-05, No Iterations 4
GAMG:  Solving for p, Initial residual = 0.00020664305, Final residual = 5.7595782e-06, No Iterations 2
GAMG:  Solving for p, Initial residual = 2.4209705e-05, Final residual = 3.6784802e-06, No Iterations 1
GAMG:  Solving for p, Initial residual = 5.9407238e-06, Final residual = 5.9407238e-06, No Iterations 0
diagonal:  Solving for rho, Initial residual = 0, Final residual = 0, No Iterations 0
time step continuity errors : sum local = 7.762392e-10, global = -4.6781489e-12, cumulative = 1.1041932e-10
GAMG:  Solving for p, Initial residual = 0.0011411825, Final residual = 8.6785744e-06, No Iterations 4
GAMG:  Solving for p, Initial residual = 0.0001104547, Final residual = 3.0336817e-06, No Iterations 2
GAMG:  Solving for p, Initial residual = 1.3046979e-05, Final residual = 1.9574946e-06, No Iterations 1
GAMG:  Solving for p, Initial residual = 3.1857336e-06, Final residual = 3.1857336e-06, No Iterations 0
diagonal:  Solving for rho, Initial residual = 0, Final residual = 0, No Iterations 0
time step continuity errors : sum local = 4.1624206e-10, global = -2.2056419e-12, cumulative = 1.0821367e-10
smoothSolver:  Solving for epsilon, Initial residual = 7.4661773e-05, Final residual = 6.0681207e-07, No Iterations 1
smoothSolver:  Solving for k, Initial residual = 0.00091428717, Final residual = 1.7018224e-07, No Iterations 2
PIMPLE: Iteration 12
smoothSolver:  Solving for Ux, Initial residual = 0.00023571841, Final residual = 4.9820908e-06, No Iterations 1
smoothSolver:  Solving for Uy, Initial residual = 2.4885999e-05, Final residual = 5.9080487e-07, No Iterations 1
smoothSolver:  Solving for Uz, Initial residual = 0.0002018413, Final residual = 3.8977271e-06, No Iterations 1
smoothSolver:  Solving for h, Initial residual = 0.0011909605, Final residual = 3.6244354e-07, No Iterations 2
GAMG:  Solving for p, Initial residual = 0.0014200952, Final residual = 1.0758656e-05, No Iterations 4
GAMG:  Solving for p, Initial residual = 0.00013118121, Final residual = 3.5772641e-06, No Iterations 2
GAMG:  Solving for p, Initial residual = 1.5140564e-05, Final residual = 2.250462e-06, No Iterations 1
GAMG:  Solving for p, Initial residual = 3.6518281e-06, Final residual = 3.6518281e-06, No Iterations 0
diagonal:  Solving for rho, Initial residual = 0, Final residual = 0, No Iterations 0
time step continuity errors : sum local = 4.7810463e-10, global = -3.7695232e-12, cumulative = 1.0444415e-10
GAMG:  Solving for p, Initial residual = 0.00076804739, Final residual = 5.272355e-06, No Iterations 4
GAMG:  Solving for p, Initial residual = 7.0213651e-05, Final residual = 7.208324e-06, No Iterations 1
GAMG:  Solving for p, Initial residual = 1.1359921e-05, Final residual = 2.2226194e-06, No Iterations 1
GAMG:  Solving for p, Initial residual = 3.0922614e-06, Final residual = 3.0922614e-06, No Iterations 0
diagonal:  Solving for rho, Initial residual = 0, Final residual = 0, No Iterations 0
time step continuity errors : sum local = 4.0483511e-10, global = 2.2625059e-12, cumulative = 1.0670666e-10
smoothSolver:  Solving for epsilon, Initial residual = 6.5203104e-05, Final residual = 5.4619306e-07, No Iterations 1
smoothSolver:  Solving for k, Initial residual = 0.0005902492, Final residual = 7.3330963e-06, No Iterations 1
PIMPLE: Iteration 13
smoothSolver:  Solving for Ux, Initial residual = 0.00015470928, Final residual = 3.1560144e-06, No Iterations 1
smoothSolver:  Solving for Uy, Initial residual = 1.6364578e-05, Final residual = 3.7925702e-07, No Iterations 1
smoothSolver:  Solving for Uz, Initial residual = 0.00013354244, Final residual = 2.4808096e-06, No Iterations 1
smoothSolver:  Solving for h, Initial residual = 0.00078817795, Final residual = 9.3342785e-06, No Iterations 1
GAMG:  Solving for p, Initial residual = 0.000959556, Final residual = 6.3835527e-06, No Iterations 4
GAMG:  Solving for p, Initial residual = 8.0543964e-05, Final residual = 8.2620641e-06, No Iterations 1
GAMG:  Solving for p, Initial residual = 1.2839143e-05, Final residual = 2.4798924e-06, No Iterations 1
GAMG:  Solving for p, Initial residual = 3.4696385e-06, Final residual = 3.4696385e-06, No Iterations 0
diagonal:  Solving for rho, Initial residual = 0, Final residual = 0, No Iterations 0
time step continuity errors : sum local = 4.5485619e-10, global = 4.1080327e-12, cumulative = 1.1081469e-10
GAMG:  Solving for p, Initial residual = 0.00052021363, Final residual = 7.9706027e-06, No Iterations 3
GAMG:  Solving for p, Initial residual = 4.6319989e-05, Final residual = 5.1250096e-06, No Iterations 1
GAMG:  Solving for p, Initial residual = 7.6927352e-06, Final residual = 7.6927352e-06, No Iterations 0
GAMG:  Solving for p, Initial residual = 7.6927352e-06, Final residual = 7.6927352e-06, No Iterations 0
diagonal:  Solving for rho, Initial residual = 0, Final residual = 0, No Iterations 0
time step continuity errors : sum local = 1.008479e-09, global = 2.7388354e-11, cumulative = 1.3820304e-10
smoothSolver:  Solving for epsilon, Initial residual = 5.193451e-05, Final residual = 4.5255466e-07, No Iterations 1
bounding epsilon, min: -0.76282982 max: 8566.28 average: 12.660699
smoothSolver:  Solving for k, Initial residual = 0.00035907759, Final residual = 4.4138553e-06, No Iterations 1
PIMPLE: Iteration 14
smoothSolver:  Solving for Ux, Initial residual = 0.00010425555, Final residual = 2.0316651e-06, No Iterations 1
smoothSolver:  Solving for Uy, Initial residual = 1.0959423e-05, Final residual = 2.4489331e-07, No Iterations 1
smoothSolver:  Solving for Uz, Initial residual = 9.1629906e-05, Final residual = 1.6490886e-06, No Iterations 1
smoothSolver:  Solving for h, Initial residual = 0.00053055871, Final residual = 6.1793071e-06, No Iterations 1
GAMG:  Solving for p, Initial residual = 0.00066379121, Final residual = 9.6356692e-06, No Iterations 3
GAMG:  Solving for p, Initial residual = 5.3220493e-05, Final residual = 5.8700756e-06, No Iterations 1
GAMG:  Solving for p, Initial residual = 8.7674141e-06, Final residual = 8.7674141e-06, No Iterations 0
GAMG:  Solving for p, Initial residual = 8.7674141e-06, Final residual = 8.7674141e-06, No Iterations 0
diagonal:  Solving for rho, Initial residual = 0, Final residual = 0, No Iterations 0
time step continuity errors : sum local = 1.1504391e-09, global = 8.0081033e-12, cumulative = 1.4621115e-10
GAMG:  Solving for p, Initial residual = 0.00036130199, Final residual = 4.8772695e-06, No Iterations 3
GAMG:  Solving for p, Initial residual = 2.9041291e-05, Final residual = 3.171208e-06, No Iterations 1
GAMG:  Solving for p, Initial residual = 4.8440285e-06, Final residual = 4.8440285e-06, No Iterations 0
GAMG:  Solving for p, Initial residual = 4.8440285e-06, Final residual = 4.8440285e-06, No Iterations 0
diagonal:  Solving for rho, Initial residual = 0, Final residual = 0, No Iterations 0
time step continuity errors : sum local = 6.3562112e-10, global = 1.1295481e-11, cumulative = 1.5750663e-10
smoothSolver:  Solving for epsilon, Initial residual = 3.8613092e-05, Final residual = 3.472435e-07, No Iterations 1
smoothSolver:  Solving for k, Initial residual = 0.0002348412, Final residual = 2.8964843e-06, No Iterations 1
PIMPLE: Iteration 15
smoothSolver:  Solving for Ux, Initial residual = 7.0978775e-05, Final residual = 1.3323202e-06, No Iterations 1
smoothSolver:  Solving for Uy, Initial residual = 7.4108314e-06, Final residual = 7.4108314e-06, No Iterations 0
smoothSolver:  Solving for Uz, Initial residual = 6.4484129e-05, Final residual = 1.1551668e-06, No Iterations 1
smoothSolver:  Solving for h, Initial residual = 0.00035864312, Final residual = 4.1099026e-06, No Iterations 1
GAMG:  Solving for p, Initial residual = 0.00047129754, Final residual = 6.2742047e-06, No Iterations 3
GAMG:  Solving for p, Initial residual = 3.5787985e-05, Final residual = 3.8928343e-06, No Iterations 1
GAMG:  Solving for p, Initial residual = 5.9606162e-06, Final residual = 5.9606162e-06, No Iterations 0
GAMG:  Solving for p, Initial residual = 5.9606162e-06, Final residual = 5.9606162e-06, No Iterations 0
diagonal:  Solving for rho, Initial residual = 0, Final residual = 0, No Iterations 0
time step continuity errors : sum local = 7.8264638e-10, global = -2.0781081e-12, cumulative = 1.5542852e-10
GAMG:  Solving for p, Initial residual = 0.00025715002, Final residual = 8.8163605e-06, No Iterations 2
GAMG:  Solving for p, Initial residual = 2.3140789e-05, Final residual = 3.424867e-06, No Iterations 1
GAMG:  Solving for p, Initial residual = 4.7239898e-06, Final residual = 4.7239898e-06, No Iterations 0
GAMG:  Solving for p, Initial residual = 4.7239898e-06, Final residual = 4.7239898e-06, No Iterations 0
diagonal:  Solving for rho, Initial residual = 0, Final residual = 0, No Iterations 0
time step continuity errors : sum local = 6.2028117e-10, global = 7.4771885e-11, cumulative = 2.302004e-10
smoothSolver:  Solving for epsilon, Initial residual = 2.6883872e-05, Final residual = 2.4555588e-07, No Iterations 1
smoothSolver:  Solving for k, Initial residual = 0.00018030148, Final residual = 2.335707e-06, No Iterations 1
PIMPLE: Iteration 16
smoothSolver:  Solving for Ux, Initial residual = 4.9831426e-05, Final residual = 8.9885658e-07, No Iterations 1
smoothSolver:  Solving for Uy, Initial residual = 5.3846427e-06, Final residual = 5.3846427e-06, No Iterations 0
smoothSolver:  Solving for Uz, Initial residual = 4.8637965e-05, Final residual = 8.5897212e-07, No Iterations 1
smoothSolver:  Solving for h, Initial residual = 0.00024412762, Final residual = 2.7526213e-06, No Iterations 1
GAMG:  Solving for p, Initial residual = 0.0003454634, Final residual = 4.2952357e-06, No Iterations 3
GAMG:  Solving for p, Initial residual = 2.7595992e-05, Final residual = 3.0040018e-06, No Iterations 1
GAMG:  Solving for p, Initial residual = 4.7338e-06, Final residual = 4.7338e-06, No Iterations 0
GAMG:  Solving for p, Initial residual = 4.7338e-06, Final residual = 4.7338e-06, No Iterations 0
diagonal:  Solving for rho, Initial residual = 0, Final residual = 0, No Iterations 0
time step continuity errors : sum local = 6.2184622e-10, global = 2.6083291e-12, cumulative = 2.3280873e-10
GAMG:  Solving for p, Initial residual = 0.00018914358, Final residual = 6.4028945e-06, No Iterations 2
GAMG:  Solving for p, Initial residual = 1.773339e-05, Final residual = 2.5504313e-06, No Iterations 1
GAMG:  Solving for p, Initial residual = 3.599409e-06, Final residual = 3.599409e-06, No Iterations 0
GAMG:  Solving for p, Initial residual = 3.599409e-06, Final residual = 3.599409e-06, No Iterations 0
diagonal:  Solving for rho, Initial residual = 0, Final residual = 0, No Iterations 0
time step continuity errors : sum local = 4.7283203e-10, global = 2.2233434e-11, cumulative = 2.5504217e-10
smoothSolver:  Solving for epsilon, Initial residual = 1.6677961e-05, Final residual = 1.6115086e-07, No Iterations 1
smoothSolver:  Solving for k, Initial residual = 0.0001704153, Final residual = 2.1087118e-06, No Iterations 1
PIMPLE: Iteration 17
smoothSolver:  Solving for Ux, Initial residual = 3.5935357e-05, Final residual = 6.449632e-07, No Iterations 1
smoothSolver:  Solving for Uy, Initial residual = 3.9184366e-06, Final residual = 3.9184366e-06, No Iterations 0
smoothSolver:  Solving for Uz, Initial residual = 3.8064477e-05, Final residual = 6.9225955e-07, No Iterations 1
smoothSolver:  Solving for h, Initial residual = 0.00016723012, Final residual = 1.8576363e-06, No Iterations 1
GAMG:  Solving for p, Initial residual = 0.00026683225, Final residual = 9.3501669e-06, No Iterations 2
GAMG:  Solving for p, Initial residual = 2.6982119e-05, Final residual = 3.8661122e-06, No Iterations 1
GAMG:  Solving for p, Initial residual = 5.4629997e-06, Final residual = 5.4629997e-06, No Iterations 0
GAMG:  Solving for p, Initial residual = 5.4629997e-06, Final residual = 5.4629997e-06, No Iterations 0
diagonal:  Solving for rho, Initial residual = 0, Final residual = 0, No Iterations 0
time step continuity errors : sum local = 7.17864e-10, global = 5.264981e-12, cumulative = 2.6030715e-10
GAMG:  Solving for p, Initial residual = 0.0001474434, Final residual = 5.0582162e-06, No Iterations 2
GAMG:  Solving for p, Initial residual = 1.5033096e-05, Final residual = 2.1910463e-06, No Iterations 1
GAMG:  Solving for p, Initial residual = 3.1055521e-06, Final residual = 3.1055521e-06, No Iterations 0
GAMG:  Solving for p, Initial residual = 3.1055521e-06, Final residual = 3.1055521e-06, No Iterations 0
diagonal:  Solving for rho, Initial residual = 0, Final residual = 0, No Iterations 0
time step continuity errors : sum local = 4.0808603e-10, global = -8.5614041e-13, cumulative = 2.5945101e-10
smoothSolver:  Solving for epsilon, Initial residual = 9.9854305e-06, Final residual = 9.9854305e-06, No Iterations 0
smoothSolver:  Solving for k, Initial residual = 0.00016076756, Final residual = 1.9459775e-06, No Iterations 1
PIMPLE: Iteration 18
smoothSolver:  Solving for Ux, Initial residual = 2.695163e-05, Final residual = 4.6619122e-07, No Iterations 1
smoothSolver:  Solving for Uy, Initial residual = 2.8612113e-06, Final residual = 2.8612113e-06, No Iterations 0
smoothSolver:  Solving for Uz, Initial residual = 2.9956032e-05, Final residual = 5.2801821e-07, No Iterations 1
smoothSolver:  Solving for h, Initial residual = 0.00011580236, Final residual = 1.2690769e-06, No Iterations 1
GAMG:  Solving for p, Initial residual = 0.00021385201, Final residual = 7.4366433e-06, No Iterations 2
GAMG:  Solving for p, Initial residual = 2.229434e-05, Final residual = 3.2085509e-06, No Iterations 1
GAMG:  Solving for p, Initial residual = 4.5629143e-06, Final residual = 4.5629143e-06, No Iterations 0
GAMG:  Solving for p, Initial residual = 4.5629143e-06, Final residual = 4.5629143e-06, No Iterations 0
diagonal:  Solving for rho, Initial residual = 0, Final residual = 0, No Iterations 0
time step continuity errors : sum local = 5.9972201e-10, global = -3.9865251e-12, cumulative = 2.5546448e-10
GAMG:  Solving for p, Initial residual = 0.0001193438, Final residual = 4.1417808e-06, No Iterations 2
GAMG:  Solving for p, Initial residual = 1.2624202e-05, Final residual = 1.8426834e-06, No Iterations 1
GAMG:  Solving for p, Initial residual = 2.6298621e-06, Final residual = 2.6298621e-06, No Iterations 0
GAMG:  Solving for p, Initial residual = 2.6298621e-06, Final residual = 2.6298621e-06, No Iterations 0
diagonal:  Solving for rho, Initial residual = 0, Final residual = 0, No Iterations 0
time step continuity errors : sum local = 3.4565527e-10, global = -2.1450273e-12, cumulative = 2.5331946e-10
smoothSolver:  Solving for epsilon, Initial residual = 1.2615885e-05, Final residual = 1.2945927e-07, No Iterations 1
bounding epsilon, min: -1.1318309 max: 8564.7523 average: 12.586857
smoothSolver:  Solving for k, Initial residual = 0.00015969728, Final residual = 1.9386574e-06, No Iterations 1
PIMPLE: Iteration 19
smoothSolver:  Solving for Ux, Initial residual = 1.9565208e-05, Final residual = 3.3384469e-07, No Iterations 1
smoothSolver:  Solving for Uy, Initial residual = 2.0786229e-06, Final residual = 2.0786229e-06, No Iterations 0
smoothSolver:  Solving for Uz, Initial residual = 2.3083797e-05, Final residual = 4.0452909e-07, No Iterations 1
smoothSolver:  Solving for h, Initial residual = 8.1096419e-05, Final residual = 8.7974092e-07, No Iterations 1
GAMG:  Solving for p, Initial residual = 0.00016312061, Final residual = 5.7929911e-06, No Iterations 2
GAMG:  Solving for p, Initial residual = 1.787757e-05, Final residual = 2.5454044e-06, No Iterations 1
GAMG:  Solving for p, Initial residual = 3.644152e-06, Final residual = 3.644152e-06, No Iterations 0
GAMG:  Solving for p, Initial residual = 3.644152e-06, Final residual = 3.644152e-06, No Iterations 0
diagonal:  Solving for rho, Initial residual = 0, Final residual = 0, No Iterations 0
time step continuity errors : sum local = 4.7903971e-10, global = -2.7912411e-12, cumulative = 2.5052821e-10
GAMG:  Solving for p, Initial residual = 9.128759e-05, Final residual = 3.259929e-06, No Iterations 2
GAMG:  Solving for p, Initial residual = 1.0191869e-05, Final residual = 1.470546e-06, No Iterations 1
GAMG:  Solving for p, Initial residual = 2.1131707e-06, Final residual = 2.1131707e-06, No Iterations 0
GAMG:  Solving for p, Initial residual = 2.1131707e-06, Final residual = 2.1131707e-06, No Iterations 0
diagonal:  Solving for rho, Initial residual = 0, Final residual = 0, No Iterations 0
time step continuity errors : sum local = 2.7778667e-10, global = -1.1259022e-12, cumulative = 2.4940231e-10
smoothSolver:  Solving for epsilon, Initial residual = 7.6369259e-06, Final residual = 7.6369259e-06, No Iterations 0
smoothSolver:  Solving for k, Initial residual = 0.00012791147, Final residual = 1.4933466e-06, No Iterations 1
PIMPLE: Iteration 20
smoothSolver:  Solving for Ux, Initial residual = 1.6249045e-05, Final residual = 2.8250088e-07, No Iterations 1
smoothSolver:  Solving for Uy, Initial residual = 1.6778376e-06, Final residual = 1.6778376e-06, No Iterations 0
smoothSolver:  Solving for Uz, Initial residual = 2.046469e-05, Final residual = 3.722283e-07, No Iterations 1
smoothSolver:  Solving for h, Initial residual = 5.7276288e-05, Final residual = 6.2030615e-07, No Iterations 1
GAMG:  Solving for p, Initial residual = 0.00013703287, Final residual = 5.1810777e-06, No Iterations 2
GAMG:  Solving for p, Initial residual = 1.6057697e-05, Final residual = 2.2912036e-06, No Iterations 1
[...]
GAMG:  Solving for p, Initial residual = 3.8367973e-05, Final residual = 8.6269772e-06, No Iterations 1
GAMG:  Solving for p, Initial residual = 1.0561656e-05, Final residual = 3.0298806e-06, No Iterations 1
GAMG:  Solving for p, Initial residual = 3.5714741e-06, Final residual = 3.5714741e-06, No Iterations 0
GAMG:  Solving for p, Initial residual = 3.5714741e-06, Final residual = 3.5714741e-06, No Iterations 0
diagonal:  Solving for rho, Initial residual = 0, Final residual = 0, No Iterations 0
time step continuity errors : sum local = 1.8699929e-09, global = -1.54007e-10, cumulative = -4.5585052e-09
GAMG:  Solving for p, Initial residual = 2.0514124e-05, Final residual = 4.7266294e-06, No Iterations 1
GAMG:  Solving for p, Initial residual = 5.7194024e-06, Final residual = 5.7194024e-06, No Iterations 0
GAMG:  Solving for p, Initial residual = 5.7194024e-06, Final residual = 5.7194024e-06, No Iterations 0
GAMG:  Solving for p, Initial residual = 5.7194024e-06, Final residual = 5.7194024e-06, No Iterations 0
diagonal:  Solving for rho, Initial residual = 0, Final residual = 0, No Iterations 0
time step continuity errors : sum local = 2.9946521e-09, global = 4.0643822e-11, cumulative = -4.5178614e-09
smoothSolver:  Solving for epsilon, Initial residual = 8.4422712e-06, Final residual = 8.4422712e-06, No Iterations 0
smoothSolver:  Solving for k, Initial residual = 9.0980814e-06, Final residual = 9.0980814e-06, No Iterations 0
PIMPLE: Converged in 18 iterations
ExecutionTime = 851.51 s  ClockTime = 852 s

Courant Number mean: 0.050514513 max: 2.2821649
deltaT = 2.9761997e-05
Time = 0.000119017

PIMPLE: Iteration 1
diagonal:  Solving for rho, Initial residual = 0, Final residual = 0, No Iterations 0
smoothSolver:  Solving for Ux, Initial residual = 0.099038759, Final residual = 2.4997873e-06, No Iterations 4
smoothSolver:  Solving for Uy, Initial residual = 0.027953931, Final residual = 8.7764078e-06, No Iterations 3
smoothSolver:  Solving for Uz, Initial residual = 0.073610061, Final residual = 1.4413302e-06, No Iterations 4
smoothSolver:  Solving for h, Initial residual = 0.061881403, Final residual = 6.6161089e-06, No Iterations 3
GAMG:  Solving for p, Initial residual = 0.094140372, Final residual = 0.00085161897, No Iterations 6
GAMG:  Solving for p, Initial residual = 0.016119145, Final residual = 0.00011239237, No Iterations 4
GAMG:  Solving for p, Initial residual = 0.0018406312, Final residual = 1.8202361e-05, No Iterations 4
GAMG:  Solving for p, Initial residual = 0.0002966914, Final residual = 5.8451923e-06, No Iterations 3
diagonal:  Solving for rho, Initial residual = 0, Final residual = 0, No Iterations 0
time step continuity errors : sum local = 3.0376565e-09, global = -4.9046964e-10, cumulative = -5.008331e-09
GAMG:  Solving for p, Initial residual = 0.049623192, Final residual = 0.00044191363, No Iterations 6
GAMG:  Solving for p, Initial residual = 0.008081854, Final residual = 5.6504767e-05, No Iterations 4
GAMG:  Solving for p, Initial residual = 0.00092327903, Final residual = 9.16136e-06, No Iterations 4
GAMG:  Solving for p, Initial residual = 0.00014880158, Final residual = 7.1434861e-06, No Iterations 2
diagonal:  Solving for rho, Initial residual = 0, Final residual = 0, No Iterations 0
time step continuity errors : sum local = 3.7089459e-09, global = 3.0659845e-10, cumulative = -4.7017326e-09
smoothSolver:  Solving for epsilon, Initial residual = 0.0052102747, Final residual = 2.2653468e-06, No Iterations 2
smoothSolver:  Solving for k, Initial residual = 0.0097135704, Final residual = 1.6551658e-06, No Iterations 3
PIMPLE: Iteration 2
smoothSolver:  Solving for Ux, Initial residual = 0.026174399, Final residual = 7.6459481e-06, No Iterations 3
smoothSolver:  Solving for Uy, Initial residual = 0.0089328244, Final residual = 3.2474261e-06, No Iterations 3
smoothSolver:  Solving for Uz, Initial residual = 0.019801375, Final residual = 5.8746088e-06, No Iterations 3
smoothSolver:  Solving for h, Initial residual = 0.016316383, Final residual = 1.5232299e-06, No Iterations 3
GAMG:  Solving for p, Initial residual = 0.058550714, Final residual = 0.00044380276, No Iterations 6
GAMG:  Solving for p, Initial residual = 0.0095644535, Final residual = 5.7912779e-05, No Iterations 4
GAMG:  Solving for p, Initial residual = 0.0010800461, Final residual = 8.407778e-06, No Iterations 4
GAMG:  Solving for p, Initial residual = 0.00018076643, Final residual = 7.3411289e-06, No Iterations 2
diagonal:  Solving for rho, Initial residual = 0, Final residual = 0, No Iterations 0
time step continuity errors : sum local = 3.5689152e-09, global = 2.6195432e-10, cumulative = -4.4397783e-09
GAMG:  Solving for p, Initial residual = 0.031402513, Final residual = 0.00023202241, No Iterations 6
GAMG:  Solving for p, Initial residual = 0.0048259111, Final residual = 2.9355312e-05, No Iterations 4
GAMG:  Solving for p, Initial residual = 0.0005447188, Final residual = 8.536624e-06, No Iterations 3
GAMG:  Solving for p, Initial residual = 9.2723812e-05, Final residual = 4.2369675e-06, No Iterations 2
diagonal:  Solving for rho, Initial residual = 0, Final residual = 0, No Iterations 0
time step continuity errors : sum local = 2.0580347e-09, global = 1.6197803e-10, cumulative = -4.2778002e-09
smoothSolver:  Solving for epsilon, Initial residual = 0.0024447525, Final residual = 1.2497125e-06, No Iterations 2
smoothSolver:  Solving for k, Initial residual = 0.0041044708, Final residual = 8.6984661e-07, No Iterations 3
PIMPLE: Iteration 3
smoothSolver:  Solving for Ux, Initial residual = 0.0080922276, Final residual = 3.0762881e-06, No Iterations 3
smoothSolver:  Solving for Uy, Initial residual = 0.0030234306, Final residual = 1.1255969e-06, No Iterations 3
smoothSolver:  Solving for Uz, Initial residual = 0.0065913953, Final residual = 3.2260781e-06, No Iterations 3
smoothSolver:  Solving for h, Initial residual = 0.015149433, Final residual = 9.8972735e-07, No Iterations 3
GAMG:  Solving for p, Initial residual = 0.036620899, Final residual = 0.00025889454, No Iterations 6
GAMG:  Solving for p, Initial residual = 0.0055832095, Final residual = 2.9825842e-05, No Iterations 4
GAMG:  Solving for p, Initial residual = 0.00062592667, Final residual = 9.2303776e-06, No Iterations 3
GAMG:  Solving for p, Initial residual = 0.00010826231, Final residual = 4.5448591e-06, No Iterations 2
diagonal:  Solving for rho, Initial residual = 0, Final residual = 0, No Iterations 0
time step continuity errors : sum local = 2.1438645e-09, global = 1.0263652e-10, cumulative = -4.1751637e-09
GAMG:  Solving for p, Initial residual = 0.019598174, Final residual = 0.00013416878, No Iterations 6
GAMG:  Solving for p, Initial residual = 0.0028319235, Final residual = 1.5255624e-05, No Iterations 4
GAMG:  Solving for p, Initial residual = 0.00031715934, Final residual = 4.6524477e-06, No Iterations 3
GAMG:  Solving for p, Initial residual = 5.4553879e-05, Final residual = 7.248673e-06, No Iterations 1
diagonal:  Solving for rho, Initial residual = 0, Final residual = 0, No Iterations 0
time step continuity errors : sum local = 3.417143e-09, global = -9.0653928e-11, cumulative = -4.2658176e-09
smoothSolver:  Solving for epsilon, Initial residual = 0.0012032536, Final residual = 6.4074102e-07, No Iterations 2
smoothSolver:  Solving for k, Initial residual = 0.0018899507, Final residual = 6.0345422e-06, No Iterations 2
PIMPLE: Iteration 4
smoothSolver:  Solving for Ux, Initial residual = 0.0043979374, Final residual = 2.1019998e-06, No Iterations 3
smoothSolver:  Solving for Uy, Initial residual = 0.001441327, Final residual = 6.1557705e-06, No Iterations 2
smoothSolver:  Solving for Uz, Initial residual = 0.0035876108, Final residual = 1.8792433e-06, No Iterations 3
smoothSolver:  Solving for h, Initial residual = 0.01466065, Final residual = 9.8159737e-07, No Iterations 3
GAMG:  Solving for p, Initial residual = 0.022453848, Final residual = 0.00014685131, No Iterations 6
GAMG:  Solving for p, Initial residual = 0.0031743498, Final residual = 1.5411115e-05, No Iterations 4
GAMG:  Solving for p, Initial residual = 0.00035381366, Final residual = 5.3467003e-06, No Iterations 3
GAMG:  Solving for p, Initial residual = 6.11176e-05, Final residual = 8.1028443e-06, No Iterations 1
diagonal:  Solving for rho, Initial residual = 0, Final residual = 0, No Iterations 0
time step continuity errors : sum local = 3.7676689e-09, global = 1.0106605e-10, cumulative = -4.1647516e-09
GAMG:  Solving for p, Initial residual = 0.011968084, Final residual = 7.5334757e-05, No Iterations 6
GAMG:  Solving for p, Initial residual = 0.0016197793, Final residual = 7.8549349e-06, No Iterations 4
GAMG:  Solving for p, Initial residual = 0.0001806447, Final residual = 6.7717766e-06, No Iterations 2
GAMG:  Solving for p, Initial residual = 3.2825608e-05, Final residual = 5.3035062e-06, No Iterations 1
diagonal:  Solving for rho, Initial residual = 0, Final residual = 0, No Iterations 0
time step continuity errors : sum local = 2.4648342e-09, global = -6.6458256e-11, cumulative = -4.2312099e-09
smoothSolver:  Solving for epsilon, Initial residual = 0.00058755838, Final residual = 3.2699214e-07, No Iterations 2
smoothSolver:  Solving for k, Initial residual = 0.00091470778, Final residual = 3.1904815e-06, No Iterations 2
PIMPLE: Iteration 5
smoothSolver:  Solving for Ux, Initial residual = 0.0030296591, Final residual = 1.5529482e-06, No Iterations 3
smoothSolver:  Solving for Uy, Initial residual = 0.00090852505, Final residual = 4.4591066e-06, No Iterations 2
smoothSolver:  Solving for Uz, Initial residual = 0.0022460924, Final residual = 1.0380007e-06, No Iterations 3
smoothSolver:  Solving for h, Initial residual = 0.011606902, Final residual = 8.2349078e-07, No Iterations 3
GAMG:  Solving for p, Initial residual = 0.013601289, Final residual = 7.8397676e-05, No Iterations 6
GAMG:  Solving for p, Initial residual = 0.0017860321, Final residual = 8.4416745e-06, No Iterations 4
GAMG:  Solving for p, Initial residual = 0.00020049427, Final residual = 7.6670868e-06, No Iterations 2
GAMG:  Solving for p, Initial residual = 3.6996339e-05, Final residual = 6.0171506e-06, No Iterations 1
diagonal:  Solving for rho, Initial residual = 0, Final residual = 0, No Iterations 0
time step continuity errors : sum local = 2.7770624e-09, global = -6.0043236e-12, cumulative = -4.2372142e-09
GAMG:  Solving for p, Initial residual = 0.007229412, Final residual = 3.9922356e-05, No Iterations 6
GAMG:  Solving for p, Initial residual = 0.00091695731, Final residual = 4.2500576e-06, No Iterations 4
GAMG:  Solving for p, Initial residual = 0.00010308119, Final residual = 3.8813455e-06, No Iterations 2
GAMG:  Solving for p, Initial residual = 1.9003643e-05, Final residual = 3.0739918e-06, No Iterations 1
diagonal:  Solving for rho, Initial residual = 0, Final residual = 0, No Iterations 0
time step continuity errors : sum local = 1.4182648e-09, global = -6.1609817e-12, cumulative = -4.2433752e-09
smoothSolver:  Solving for epsilon, Initial residual = 0.00028740814, Final residual = 5.7238855e-06, No Iterations 1
smoothSolver:  Solving for k, Initial residual = 0.00045871835, Final residual = 1.67484e-06, No Iterations 2
PIMPLE: Iteration 6
smoothSolver:  Solving for Ux, Initial residual = 0.0019852701, Final residual = 9.8167958e-06, No Iterations 2
smoothSolver:  Solving for Uy, Initial residual = 0.00058910556, Final residual = 3.0686603e-06, No Iterations 2
smoothSolver:  Solving for Uz, Initial residual = 0.0013918188, Final residual = 5.8127583e-06, No Iterations 2
smoothSolver:  Solving for h, Initial residual = 0.008334658, Final residual = 9.6487101e-06, No Iterations 2
GAMG:  Solving for p, Initial residual = 0.0082493133, Final residual = 7.3872322e-05, No Iterations 5
GAMG:  Solving for p, Initial residual = 0.0010364221, Final residual = 6.9380322e-06, No Iterations 4
GAMG:  Solving for p, Initial residual = 0.00011761457, Final residual = 4.9313196e-06, No Iterations 2
GAMG:  Solving for p, Initial residual = 2.2220402e-05, Final residual = 3.7700925e-06, No Iterations 1
diagonal:  Solving for rho, Initial residual = 0, Final residual = 0, No Iterations 0
time step continuity errors : sum local = 1.7326382e-09, global = 7.2856205e-11, cumulative = -4.170519e-09
GAMG:  Solving for p, Initial residual = 0.0043810676, Final residual = 3.7474373e-05, No Iterations 5
GAMG:  Solving for p, Initial residual = 0.00053353642, Final residual = 7.3117315e-06, No Iterations 3
GAMG:  Solving for p, Initial residual = 6.2656812e-05, Final residual = 8.0921708e-06, No Iterations 1
GAMG:  Solving for p, Initial residual = 1.4835343e-05, Final residual = 3.4398835e-06, No Iterations 1
diagonal:  Solving for rho, Initial residual = 0, Final residual = 0, No Iterations 0
time step continuity errors : sum local = 1.5805717e-09, global = -1.0645835e-10, cumulative = -4.2769773e-09
smoothSolver:  Solving for epsilon, Initial residual = 0.00014935903, Final residual = 3.2140412e-06, No Iterations 1
smoothSolver:  Solving for k, Initial residual = 0.0002435381, Final residual = 8.8958145e-07, No Iterations 2
PIMPLE: Iteration 7
smoothSolver:  Solving for Ux, Initial residual = 0.0012307468, Final residual = 5.8880616e-06, No Iterations 2
smoothSolver:  Solving for Uy, Initial residual = 0.00037213019, Final residual = 1.9620003e-06, No Iterations 2
smoothSolver:  Solving for Uz, Initial residual = 0.00084823092, Final residual = 3.3334902e-06, No Iterations 2
smoothSolver:  Solving for h, Initial residual = 0.0056928219, Final residual = 6.6828394e-06, No Iterations 2
GAMG:  Solving for p, Initial residual = 0.0050732813, Final residual = 3.8106227e-05, No Iterations 5
GAMG:  Solving for p, Initial residual = 0.00060266025, Final residual = 8.365903e-06, No Iterations 3
GAMG:  Solving for p, Initial residual = 7.2080921e-05, Final residual = 9.386282e-06, No Iterations 1
GAMG:  Solving for p, Initial residual = 1.7224935e-05, Final residual = 4.0525524e-06, No Iterations 1
diagonal:  Solving for rho, Initial residual = 0, Final residual = 0, No Iterations 0
time step continuity errors : sum local = 1.8575528e-09, global = -1.680835e-10, cumulative = -4.4450608e-09
GAMG:  Solving for p, Initial residual = 0.0026961758, Final residual = 1.9323484e-05, No Iterations 5
GAMG:  Solving for p, Initial residual = 0.00031062485, Final residual = 4.2605443e-06, No Iterations 3
GAMG:  Solving for p, Initial residual = 3.7154255e-05, Final residual = 4.8180769e-06, No Iterations 1
GAMG:  Solving for p, Initial residual = 8.8911476e-06, Final residual = 8.8911476e-06, No Iterations 0
diagonal:  Solving for rho, Initial residual = 0, Final residual = 0, No Iterations 0
time step continuity errors : sum local = 4.074742e-09, global = 2.4890895e-10, cumulative = -4.1961519e-09
smoothSolver:  Solving for epsilon, Initial residual = 9.1393465e-05, Final residual = 2.0610096e-06, No Iterations 1
smoothSolver:  Solving for k, Initial residual = 0.00013430266, Final residual = 6.9096502e-06, No Iterations 1
PIMPLE: Iteration 8
smoothSolver:  Solving for Ux, Initial residual = 0.00074097076, Final residual = 3.3704929e-06, No Iterations 2
smoothSolver:  Solving for Uy, Initial residual = 0.0002308142, Final residual = 1.2030323e-06, No Iterations 2
smoothSolver:  Solving for Uz, Initial residual = 0.00051464255, Final residual = 1.9539538e-06, No Iterations 2
smoothSolver:  Solving for h, Initial residual = 0.0037846453, Final residual = 4.4667052e-06, No Iterations 2
GAMG:  Solving for p, Initial residual = 0.0031755062, Final residual = 2.05847e-05, No Iterations 5
GAMG:  Solving for p, Initial residual = 0.00035853011, Final residual = 5.0013124e-06, No Iterations 3
GAMG:  Solving for p, Initial residual = 4.3416047e-05, Final residual = 5.6743832e-06, No Iterations 1
GAMG:  Solving for p, Initial residual = 1.0463905e-05, Final residual = 2.482043e-06, No Iterations 1
diagonal:  Solving for rho, Initial residual = 0, Final residual = 0, No Iterations 0
time step continuity errors : sum local = 1.1356423e-09, global = -1.252341e-10, cumulative = -4.321386e-09
GAMG:  Solving for p, Initial residual = 0.001688119, Final residual = 1.0428258e-05, No Iterations 5
GAMG:  Solving for p, Initial residual = 0.00018477164, Final residual = 6.0537122e-06, No Iterations 2
GAMG:  Solving for p, Initial residual = 2.4109312e-05, Final residual = 3.9329543e-06, No Iterations 1
GAMG:  Solving for p, Initial residual = 6.4864035e-06, Final residual = 6.4864035e-06, No Iterations 0
diagonal:  Solving for rho, Initial residual = 0, Final residual = 0, No Iterations 0
time step continuity errors : sum local = 2.967496e-09, global = 2.2746307e-10, cumulative = -4.0939229e-09
smoothSolver:  Solving for epsilon, Initial residual = 5.2864746e-05, Final residual = 1.250829e-06, No Iterations 1
smoothSolver:  Solving for k, Initial residual = 8.0574819e-05, Final residual = 3.9229321e-06, No Iterations 1
PIMPLE: Iteration 9
smoothSolver:  Solving for Ux, Initial residual = 0.00044163718, Final residual = 1.900801e-06, No Iterations 2
smoothSolver:  Solving for Uy, Initial residual = 0.00014200747, Final residual = 7.5566056e-06, No Iterations 1
smoothSolver:  Solving for Uz, Initial residual = 0.00031564315, Final residual = 1.1961429e-06, No Iterations 2
smoothSolver:  Solving for h, Initial residual = 0.0024823797, Final residual = 2.9435969e-06, No Iterations 2
GAMG:  Solving for p, Initial residual = 0.0020203623, Final residual = 1.1864304e-05, No Iterations 5
GAMG:  Solving for p, Initial residual = 0.00021868078, Final residual = 7.1824616e-06, No Iterations 2
GAMG:  Solving for p, Initial residual = 2.8575879e-05, Final residual = 4.6883442e-06, No Iterations 1
GAMG:  Solving for p, Initial residual = 7.7074854e-06, Final residual = 7.7074854e-06, No Iterations 0
diagonal:  Solving for rho, Initial residual = 0, Final residual = 0, No Iterations 0
time step continuity errors : sum local = 3.5220982e-09, global = 3.1022482e-10, cumulative = -3.7836981e-09
GAMG:  Solving for p, Initial residual = 0.0010743384, Final residual = 5.9975505e-06, No Iterations 5
GAMG:  Solving for p, Initial residual = 0.00011286959, Final residual = 3.6930343e-06, No Iterations 2
GAMG:  Solving for p, Initial residual = 1.4797634e-05, Final residual = 2.4210442e-06, No Iterations 1
GAMG:  Solving for p, Initial residual = 3.9975944e-06, Final residual = 3.9975944e-06, No Iterations 0
diagonal:  Solving for rho, Initial residual = 0, Final residual = 0, No Iterations 0
time step continuity errors : sum local = 1.8266734e-09, global = 1.5462682e-10, cumulative = -3.6290713e-09
smoothSolver:  Solving for epsilon, Initial residual = 3.1254178e-05, Final residual = 7.6442903e-07, No Iterations 1
smoothSolver:  Solving for k, Initial residual = 5.1251162e-05, Final residual = 2.3746154e-06, No Iterations 1
PIMPLE: Iteration 10
smoothSolver:  Solving for Ux, Initial residual = 0.0002646364, Final residual = 1.0828959e-06, No Iterations 2
smoothSolver:  Solving for Uy, Initial residual = 8.8177294e-05, Final residual = 4.6593143e-06, No Iterations 1
smoothSolver:  Solving for Uz, Initial residual = 0.00019708194, Final residual = 8.3332826e-06, No Iterations 1
smoothSolver:  Solving for h, Initial residual = 0.0016199853, Final residual = 1.9312297e-06, No Iterations 2
GAMG:  Solving for p, Initial residual = 0.0012973163, Final residual = 7.2874273e-06, No Iterations 5
GAMG:  Solving for p, Initial residual = 0.00013595643, Final residual = 4.4664825e-06, No Iterations 2
GAMG:  Solving for p, Initial residual = 1.7728228e-05, Final residual = 2.92324e-06, No Iterations 1
GAMG:  Solving for p, Initial residual = 4.7884415e-06, Final residual = 4.7884415e-06, No Iterations 0
diagonal:  Solving for rho, Initial residual = 0, Final residual = 0, No Iterations 0
time step continuity errors : sum local = 2.1862778e-09, global = 2.0487815e-10, cumulative = -3.4241931e-09
