/*---------------------------------------------------------------------------*\
  =========                 |
  \\      /  F ield         | OpenFOAM: The Open Source CFD Toolbox
   \\    /   O peration     | Website:  https://openfoam.org
    \\  /    A nd           | Version:  8
     \\/     M anipulation  |
\*---------------------------------------------------------------------------*/
Build  : 8
Exec   : reconstructPar
Date   : Dec 31 2020
Time   : 15:03:03
Host   : "edo20-HP-Pavilion-Notebook"
PID    : 154544
I/O    : uncollated
Case   : /home/edo20/Piscaglia/Shared_docker_folder/Shared_CTTP/testEdo/3D/combustorRhoPimple2
nProcs : 1
sigFpe : Enabling floating point exception trapping (FOAM_SIGFPE).
fileModificationChecking : Monitoring run-time modified files using timeStampMaster (fileModificationSkew 10)
allowSystemOperations : Allowing user-supplied system call operations

// * * * * * * * * * * * * * * * * * * * * * * * * * * * * * * * * * * * * * //
Create time



Reconstructing fields for mesh region0

Time = 0.01

Reconstructing FV fields

    Reconstructing volScalarFields

        alphat
        Co
        nut
        rho
        p
        T
        k
        epsilon
        yPlus

    Reconstructing volVectorFields

        U

    Reconstructing surfaceScalarFields

        phi

Reconstructing point fields

No point fields

No lagrangian fields

Time = 0.02

Reconstructing FV fields

    Reconstructing volScalarFields

        alphat
        Co
        nut
        rho
        p
        T
        k
        epsilon
        yPlus

    Reconstructing volVectorFields

        U

    Reconstructing surfaceScalarFields

        phi

Reconstructing point fields

No point fields

No lagrangian fields

Time = 0.03

Reconstructing FV fields

    Reconstructing volScalarFields

        alphat
        Co
        nut
        rho
        p
        T
        k
        epsilon
        yPlus

    Reconstructing volVectorFields

        U

    Reconstructing surfaceScalarFields

        phi

Reconstructing point fields

No point fields

No lagrangian fields

Time = 0.04

Reconstructing FV fields

    Reconstructing volScalarFields

        alphat
        Co
        nut
        rho
        p
        T
        k
        epsilon
        yPlus

    Reconstructing volVectorFields

        U

    Reconstructing surfaceScalarFields

        phi

Reconstructing point fields

No point fields

No lagrangian fields

Time = 0.05

Reconstructing FV fields

    Reconstructing volScalarFields

        alphat
        Co
        nut
        rho
        p
        T
        k
        epsilon
        yPlus

    Reconstructing volVectorFields

        U

    Reconstructing surfaceScalarFields

        phi

Reconstructing point fields

No point fields

No lagrangian fields


End

