/*---------------------------------------------------------------------------*\
  =========                 |
  \\      /  F ield         | OpenFOAM: The Open Source CFD Toolbox
   \\    /   O peration     | Website:  https://openfoam.org
    \\  /    A nd           | Version:  8
     \\/     M anipulation  |
\*---------------------------------------------------------------------------*/
Build  : 8
Exec   : rhoPimpleFoam
Date   : Nov 26 2020
Time   : 10:17:04
Host   : "edo20-HP-Pavilion-Notebook"
PID    : 9692
I/O    : uncollated
Case   : /home/edo20/Piscaglia/Shared_docker_folder/Shared_CTTP/testEdo/Labs/Lab04-heatTransfer/combustor2D-BBP
nProcs : 1
sigFpe : Enabling floating point exception trapping (FOAM_SIGFPE).
fileModificationChecking : Monitoring run-time modified files using timeStampMaster (fileModificationSkew 10)
allowSystemOperations : Allowing user-supplied system call operations

// * * * * * * * * * * * * * * * * * * * * * * * * * * * * * * * * * * * * * //
Create time

Create mesh for time = 0


PIMPLE: Convergence criteria found
        p_rgh: tolerance 0.0001
        U: tolerance 1e-05


PIMPLE: No corrector convergence criteria found
        Calculations will do 10 corrections


PIMPLE: Operating solver in transient mode with 10 outer correctors


Reading thermophysical properties

Selecting thermodynamics package 
{
    type            heRhoThermo;
    mixture         pureMixture;
    transport       const;
    thermo          eConst;
    equationOfState Boussinesq;
    specie          specie;
    energy          sensibleInternalEnergy;
}

Reading field U

Reading/calculating face flux field phi

Creating turbulence model

Selecting turbulence model type RAS
Selecting RAS turbulence model kEpsilon
RAS
{
    model           kEpsilon;
    turbulence      on;
    printCoeffs     on;
    Cmu             0.09;
    C1              1.44;
    C2              1.92;
    C3              0;
    sigmak          1;
    sigmaEps        1.3;
}

Creating thermophysical transport model

Selecting thermophysical transport type RAS
Selecting default RAS thermophysical transport model eddyDiffusivity
Creating field dpdt

Creating field kinetic energy K

No MRF models present

No finite volume options present
Courant Number mean: 0.000725163 max: 1.06434

Starting time loop

forces force:
    Not including porosity effects
forces force write:
    sum of forces:
        pressure : (0 0 0)
        viscous  : (0 -0.021594 0)
        porous   : (0 0 0)
    sum of moments:
        pressure : (0 0 0)
        viscous  : (0 0 3.89635e-19)
        porous   : (0 0 0)

Courant Number mean: 0.000725163 max: 1.06434
Time = 0.0001

PIMPLE: Iteration 1
diagonal:  Solving for rho, Initial residual = 0, Final residual = 0, No Iterations 0
smoothSolver:  Solving for Ux, Initial residual = 1, Final residual = 0.0829669, No Iterations 1
smoothSolver:  Solving for Uy, Initial residual = 1, Final residual = 0.0333015, No Iterations 1
smoothSolver:  Solving for e, Initial residual = 1, Final residual = 4.26555e-07, No Iterations 1


--> FOAM FATAL ERROR: 
cannot be called for a calculatedFvPatchField
    on patch inlet of field p in file "/home/edo20/Piscaglia/Shared_docker_folder/Shared_CTTP/testEdo/Labs/Lab04-heatTransfer/combustor2D-BBP/0/p"
    You are probably trying to solve for a field with a default boundary condition.

    From function Foam::tmp<Foam::Field<Type> > Foam::calculatedFvPatchField<Type>::gradientInternalCoeffs() const [with Type = double]
    in file /home/edo20/OpenFOAM/OpenFOAM-8/src/finiteVolume/lnInclude/calculatedFvPatchField.C at line 188.

FOAM aborting

#0  Foam::error::printStack(Foam::Ostream&) at ??:?
#1  Foam::error::abort() at ??:?
#2  Foam::calculatedFvPatchField<double>::gradientInternalCoeffs() const at ??:?
#3  Foam::fv::gaussLaplacianScheme<double, double>::fvmLaplacianUncorrected(Foam::GeometricField<double, Foam::fvsPatchField, Foam::surfaceMesh> const&, Foam::GeometricField<double, Foam::fvsPatchField, Foam::surfaceMesh> const&, Foam::GeometricField<double, Foam::fvPatchField, Foam::volMesh> const&) at ??:?
#4  Foam::fv::gaussLaplacianScheme<double, double>::fvmLaplacian(Foam::GeometricField<double, Foam::fvsPatchField, Foam::surfaceMesh> const&, Foam::GeometricField<double, Foam::fvPatchField, Foam::volMesh> const&) at ??:?
#5  ? in "/home/edo20/OpenFOAM/OpenFOAM-8/platforms/linux64GccDPInt32Opt/bin/rhoPimpleFoam"
#6  ? in "/home/edo20/OpenFOAM/OpenFOAM-8/platforms/linux64GccDPInt32Opt/bin/rhoPimpleFoam"
#7  __libc_start_main in "/lib/x86_64-linux-gnu/libc.so.6"
#8  ? in "/home/edo20/OpenFOAM/OpenFOAM-8/platforms/linux64GccDPInt32Opt/bin/rhoPimpleFoam"
