/*---------------------------------------------------------------------------*\
  =========                 |
  \\      /  F ield         | OpenFOAM: The Open Source CFD Toolbox
   \\    /   O peration     | Website:  https://openfoam.org
    \\  /    A nd           | Version:  8
     \\/     M anipulation  |
\*---------------------------------------------------------------------------*/
Build  : 8
Exec   : decomposePar -region wallFilmRegion
Date   : Dec 22 2020
Time   : 19:45:57
Host   : "edo20-HP-Pavilion-Notebook"
PID    : 28965
I/O    : uncollated
Case   : /home/edo20/Piscaglia/Shared_docker_folder/Shared_CTTP/testEdo/Labs/Lab0506/combustor2D-wf-KHRT-highT
nProcs : 1
sigFpe : Enabling floating point exception trapping (FOAM_SIGFPE).
fileModificationChecking : Monitoring run-time modified files using timeStampMaster (fileModificationSkew 10)
allowSystemOperations : Allowing user-supplied system call operations

// * * * * * * * * * * * * * * * * * * * * * * * * * * * * * * * * * * * * * //
Create time



Decomposing mesh wallFilmRegion

Create mesh

Calculating distribution of cells
Selecting decompositionMethod scotch

Finished decomposition in 0 s

Calculating original mesh data

Distributing cells to processors

Distributing faces to processors

Distributing points to processors

Constructing processor meshes

Processor 0
    Number of cells = 65
    Number of faces shared with processor 1 = 1
    Number of processor patches = 1
    Number of processor faces = 1
    Number of boundary faces = 261

Processor 1
    Number of cells = 65
    Number of faces shared with processor 0 = 1
    Number of processor patches = 1
    Number of processor faces = 1
    Number of boundary faces = 261

Processor 2
    Number of cells = 65
    Number of faces shared with processor 3 = 1
    Number of processor patches = 1
    Number of processor faces = 1
    Number of boundary faces = 261

Processor 3
    Number of cells = 65
    Number of faces shared with processor 2 = 1
    Number of processor patches = 1
    Number of processor faces = 1
    Number of boundary faces = 261

Number of processor faces = 2
Max number of cells = 65 (0% above average 65)
Max number of processor patches = 1 (0% above average 1)
Max number of faces between processors = 1 (0% above average 1)

Time = 0

Processor 0: field transfer
Processor 1: field transfer
Processor 2: field transfer
Processor 3: field transfer

End

