/*---------------------------------------------------------------------------*\
  =========                 |
  \\      /  F ield         | OpenFOAM: The Open Source CFD Toolbox
   \\    /   O peration     | Website:  https://openfoam.org
    \\  /    A nd           | Version:  8
     \\/     M anipulation  |
\*---------------------------------------------------------------------------*/
Build  : 8
Exec   : foamToVTK
Date   : Dec 22 2020
Time   : 21:08:05
Host   : "edo20-HP-Pavilion-Notebook"
PID    : 29839
I/O    : uncollated
Case   : /home/edo20/Piscaglia/Shared_docker_folder/Shared_CTTP/testEdo/Labs/Lab0506/combustor2D-wf-KHRT-highT
nProcs : 1
sigFpe : Enabling floating point exception trapping (FOAM_SIGFPE).
fileModificationChecking : Monitoring run-time modified files using timeStampMaster (fileModificationSkew 10)
allowSystemOperations : Allowing user-supplied system call operations

// * * * * * * * * * * * * * * * * * * * * * * * * * * * * * * * * * * * * * //
Create time

Create mesh for time = 0

At time: 0.01 detected cloud directory : "sprayCloudTracks"
At time: 0.01 detected cloud directory : "sprayCloud"
Time: 0
    volScalarFields            : alphat nut N2 O2 p T Ydefault k epsilon
    volVectorFields            : U

    Internal  : "/home/edo20/Piscaglia/Shared_docker_folder/Shared_CTTP/testEdo/Labs/Lab0506/combustor2D-wf-KHRT-highT/VTK/combustor2D-wf-KHRT-highT_0.vtk"
    Original cells:15677 points:31956   Additional cells:0  additional points:0

    Patch     : "/home/edo20/Piscaglia/Shared_docker_folder/Shared_CTTP/testEdo/Labs/Lab0506/combustor2D-wf-KHRT-highT/VTK/inlet/inlet_0.vtk"
    Patch     : "/home/edo20/Piscaglia/Shared_docker_folder/Shared_CTTP/testEdo/Labs/Lab0506/combustor2D-wf-KHRT-highT/VTK/outlet/outlet_0.vtk"
    Patch     : "/home/edo20/Piscaglia/Shared_docker_folder/Shared_CTTP/testEdo/Labs/Lab0506/combustor2D-wf-KHRT-highT/VTK/splitter/splitter_0.vtk"
    Patch     : "/home/edo20/Piscaglia/Shared_docker_folder/Shared_CTTP/testEdo/Labs/Lab0506/combustor2D-wf-KHRT-highT/VTK/fuel_inlet/fuel_inlet_0.vtk"
    Patch     : "/home/edo20/Piscaglia/Shared_docker_folder/Shared_CTTP/testEdo/Labs/Lab0506/combustor2D-wf-KHRT-highT/VTK/back/back_0.vtk"
    Patch     : "/home/edo20/Piscaglia/Shared_docker_folder/Shared_CTTP/testEdo/Labs/Lab0506/combustor2D-wf-KHRT-highT/VTK/frontAndBack/frontAndBack_0.vtk"
    Patch     : "/home/edo20/Piscaglia/Shared_docker_folder/Shared_CTTP/testEdo/Labs/Lab0506/combustor2D-wf-KHRT-highT/VTK/region0_to_wallFilmRegion_wallFilmFaces/region0_to_wallFilmRegion_wallFilmFaces_0.vtk"
    FaceZone  : "/home/edo20/Piscaglia/Shared_docker_folder/Shared_CTTP/testEdo/Labs/Lab0506/combustor2D-wf-KHRT-highT/VTK/wallFilmFaces/wallFilmFaces_0.vtk"
    Lagrangian: "/home/edo20/Piscaglia/Shared_docker_folder/Shared_CTTP/testEdo/Labs/Lab0506/combustor2D-wf-KHRT-highT/VTK/lagrangian/sprayCloudTracks/sprayCloudTracks_0.vtk"
    Lagrangian: "/home/edo20/Piscaglia/Shared_docker_folder/Shared_CTTP/testEdo/Labs/Lab0506/combustor2D-wf-KHRT-highT/VTK/lagrangian/sprayCloud/sprayCloud_0.vtk"
Time: 0.01
    volScalarField::Internal   : sprayCloud:hsTrans sprayCloud:UCoeff sprayCloud:rhoTrans_CO2 sprayCloud:hsCoeff sprayCloud:rhoTrans_H2O sprayCloud:rhoTrans_N2 sprayCloud:rhoTrans_C7H16 sprayCloud:rhoTrans_O2
    volVectorField::Internal   : sprayCloud:UTrans
    volScalarFields            : C7H16 Ma sprayCloudTheta rho CO2 k H2O alphat nut N2 O2 p T epsilon yPlus
    volVectorFields            : U

    Internal  : "/home/edo20/Piscaglia/Shared_docker_folder/Shared_CTTP/testEdo/Labs/Lab0506/combustor2D-wf-KHRT-highT/VTK/combustor2D-wf-KHRT-highT_455.vtk"
    Patch     : "/home/edo20/Piscaglia/Shared_docker_folder/Shared_CTTP/testEdo/Labs/Lab0506/combustor2D-wf-KHRT-highT/VTK/inlet/inlet_455.vtk"
    Patch     : "/home/edo20/Piscaglia/Shared_docker_folder/Shared_CTTP/testEdo/Labs/Lab0506/combustor2D-wf-KHRT-highT/VTK/outlet/outlet_455.vtk"
    Patch     : "/home/edo20/Piscaglia/Shared_docker_folder/Shared_CTTP/testEdo/Labs/Lab0506/combustor2D-wf-KHRT-highT/VTK/splitter/splitter_455.vtk"
    Patch     : "/home/edo20/Piscaglia/Shared_docker_folder/Shared_CTTP/testEdo/Labs/Lab0506/combustor2D-wf-KHRT-highT/VTK/fuel_inlet/fuel_inlet_455.vtk"
    Patch     : "/home/edo20/Piscaglia/Shared_docker_folder/Shared_CTTP/testEdo/Labs/Lab0506/combustor2D-wf-KHRT-highT/VTK/back/back_455.vtk"
    Patch     : "/home/edo20/Piscaglia/Shared_docker_folder/Shared_CTTP/testEdo/Labs/Lab0506/combustor2D-wf-KHRT-highT/VTK/frontAndBack/frontAndBack_455.vtk"
    Patch     : "/home/edo20/Piscaglia/Shared_docker_folder/Shared_CTTP/testEdo/Labs/Lab0506/combustor2D-wf-KHRT-highT/VTK/region0_to_wallFilmRegion_wallFilmFaces/region0_to_wallFilmRegion_wallFilmFaces_455.vtk"
    surfScalarFields  : phi
    FaceZone  : "/home/edo20/Piscaglia/Shared_docker_folder/Shared_CTTP/testEdo/Labs/Lab0506/combustor2D-wf-KHRT-highT/VTK/wallFilmFaces/wallFilmFaces_455.vtk"
    Lagrangian: "/home/edo20/Piscaglia/Shared_docker_folder/Shared_CTTP/testEdo/Labs/Lab0506/combustor2D-wf-KHRT-highT/VTK/lagrangian/sprayCloudTracks/sprayCloudTracks_455.vtk"
        labels            : active origId typeId origProcId
        scalars           : d tc yDot injector KHindex rho d0 sigma Cp ms user tMom dTarget nParticle age mass0 T tTurb mu YC7H16(l) y liquidCore
        vectors           : UTurb U position0
        spherical tensors :
        symm tensors      :
        tensors           :
    Lagrangian: "/home/edo20/Piscaglia/Shared_docker_folder/Shared_CTTP/testEdo/Labs/Lab0506/combustor2D-wf-KHRT-highT/VTK/lagrangian/sprayCloud/sprayCloud_455.vtk"
        labels            : active origId typeId origProcId
        scalars           : d tc yDot injector KHindex rho d0 sigma Cp ms user tMom dTarget nParticle age mass0 T tTurb mu YC7H16(l) y liquidCore
        vectors           : UTurb U position0
        spherical tensors :
        symm tensors      :
        tensors           :
Time: 0.02
    volScalarField::Internal   : sprayCloud:hsTrans sprayCloud:UCoeff sprayCloud:rhoTrans_CO2 sprayCloud:hsCoeff sprayCloud:rhoTrans_H2O sprayCloud:rhoTrans_N2 sprayCloud:rhoTrans_C7H16 sprayCloud:rhoTrans_O2
    volVectorField::Internal   : sprayCloud:UTrans
    volScalarFields            : C7H16 Ma sprayCloudTheta rho CO2 k H2O alphat nut N2 O2 p T epsilon yPlus
    volVectorFields            : U

    Internal  : "/home/edo20/Piscaglia/Shared_docker_folder/Shared_CTTP/testEdo/Labs/Lab0506/combustor2D-wf-KHRT-highT/VTK/combustor2D-wf-KHRT-highT_897.vtk"
    Patch     : "/home/edo20/Piscaglia/Shared_docker_folder/Shared_CTTP/testEdo/Labs/Lab0506/combustor2D-wf-KHRT-highT/VTK/inlet/inlet_897.vtk"
    Patch     : "/home/edo20/Piscaglia/Shared_docker_folder/Shared_CTTP/testEdo/Labs/Lab0506/combustor2D-wf-KHRT-highT/VTK/outlet/outlet_897.vtk"
    Patch     : "/home/edo20/Piscaglia/Shared_docker_folder/Shared_CTTP/testEdo/Labs/Lab0506/combustor2D-wf-KHRT-highT/VTK/splitter/splitter_897.vtk"
    Patch     : "/home/edo20/Piscaglia/Shared_docker_folder/Shared_CTTP/testEdo/Labs/Lab0506/combustor2D-wf-KHRT-highT/VTK/fuel_inlet/fuel_inlet_897.vtk"
    Patch     : "/home/edo20/Piscaglia/Shared_docker_folder/Shared_CTTP/testEdo/Labs/Lab0506/combustor2D-wf-KHRT-highT/VTK/back/back_897.vtk"
    Patch     : "/home/edo20/Piscaglia/Shared_docker_folder/Shared_CTTP/testEdo/Labs/Lab0506/combustor2D-wf-KHRT-highT/VTK/frontAndBack/frontAndBack_897.vtk"
    Patch     : "/home/edo20/Piscaglia/Shared_docker_folder/Shared_CTTP/testEdo/Labs/Lab0506/combustor2D-wf-KHRT-highT/VTK/region0_to_wallFilmRegion_wallFilmFaces/region0_to_wallFilmRegion_wallFilmFaces_897.vtk"
    surfScalarFields  : phi
    FaceZone  : "/home/edo20/Piscaglia/Shared_docker_folder/Shared_CTTP/testEdo/Labs/Lab0506/combustor2D-wf-KHRT-highT/VTK/wallFilmFaces/wallFilmFaces_897.vtk"
    Lagrangian: "/home/edo20/Piscaglia/Shared_docker_folder/Shared_CTTP/testEdo/Labs/Lab0506/combustor2D-wf-KHRT-highT/VTK/lagrangian/sprayCloudTracks/sprayCloudTracks_897.vtk"
        labels            : active origId typeId origProcId
        scalars           : d tc yDot injector KHindex rho d0 sigma Cp ms user tMom dTarget nParticle age mass0 T tTurb mu YC7H16(l) y liquidCore
        vectors           : UTurb U position0
        spherical tensors :
        symm tensors      :
        tensors           :
    Lagrangian: "/home/edo20/Piscaglia/Shared_docker_folder/Shared_CTTP/testEdo/Labs/Lab0506/combustor2D-wf-KHRT-highT/VTK/lagrangian/sprayCloud/sprayCloud_897.vtk"
        labels            : active origId typeId origProcId
        scalars           : d tc yDot injector KHindex rho d0 sigma Cp ms user tMom dTarget nParticle age mass0 T tTurb mu YC7H16(l) y liquidCore
        vectors           : UTurb U position0
        spherical tensors :
        symm tensors      :
        tensors           :
Time: 0.03
    volScalarField::Internal   : sprayCloud:hsTrans sprayCloud:UCoeff sprayCloud:rhoTrans_CO2 sprayCloud:hsCoeff sprayCloud:rhoTrans_H2O sprayCloud:rhoTrans_N2 sprayCloud:rhoTrans_C7H16 sprayCloud:rhoTrans_O2
    volVectorField::Internal   : sprayCloud:UTrans
    volScalarFields            : C7H16 Ma sprayCloudTheta rho CO2 k H2O alphat nut N2 O2 p T epsilon yPlus
    volVectorFields            : U

    Internal  : "/home/edo20/Piscaglia/Shared_docker_folder/Shared_CTTP/testEdo/Labs/Lab0506/combustor2D-wf-KHRT-highT/VTK/combustor2D-wf-KHRT-highT_1361.vtk"
    Patch     : "/home/edo20/Piscaglia/Shared_docker_folder/Shared_CTTP/testEdo/Labs/Lab0506/combustor2D-wf-KHRT-highT/VTK/inlet/inlet_1361.vtk"
    Patch     : "/home/edo20/Piscaglia/Shared_docker_folder/Shared_CTTP/testEdo/Labs/Lab0506/combustor2D-wf-KHRT-highT/VTK/outlet/outlet_1361.vtk"
    Patch     : "/home/edo20/Piscaglia/Shared_docker_folder/Shared_CTTP/testEdo/Labs/Lab0506/combustor2D-wf-KHRT-highT/VTK/splitter/splitter_1361.vtk"
    Patch     : "/home/edo20/Piscaglia/Shared_docker_folder/Shared_CTTP/testEdo/Labs/Lab0506/combustor2D-wf-KHRT-highT/VTK/fuel_inlet/fuel_inlet_1361.vtk"
    Patch     : "/home/edo20/Piscaglia/Shared_docker_folder/Shared_CTTP/testEdo/Labs/Lab0506/combustor2D-wf-KHRT-highT/VTK/back/back_1361.vtk"
    Patch     : "/home/edo20/Piscaglia/Shared_docker_folder/Shared_CTTP/testEdo/Labs/Lab0506/combustor2D-wf-KHRT-highT/VTK/frontAndBack/frontAndBack_1361.vtk"
    Patch     : "/home/edo20/Piscaglia/Shared_docker_folder/Shared_CTTP/testEdo/Labs/Lab0506/combustor2D-wf-KHRT-highT/VTK/region0_to_wallFilmRegion_wallFilmFaces/region0_to_wallFilmRegion_wallFilmFaces_1361.vtk"
    surfScalarFields  : phi
    FaceZone  : "/home/edo20/Piscaglia/Shared_docker_folder/Shared_CTTP/testEdo/Labs/Lab0506/combustor2D-wf-KHRT-highT/VTK/wallFilmFaces/wallFilmFaces_1361.vtk"
    Lagrangian: "/home/edo20/Piscaglia/Shared_docker_folder/Shared_CTTP/testEdo/Labs/Lab0506/combustor2D-wf-KHRT-highT/VTK/lagrangian/sprayCloudTracks/sprayCloudTracks_1361.vtk"
        labels            : active origId typeId origProcId
        scalars           : d tc yDot injector KHindex rho d0 sigma Cp ms user tMom dTarget nParticle age mass0 T tTurb mu YC7H16(l) y liquidCore
        vectors           : UTurb U position0
        spherical tensors :
        symm tensors      :
        tensors           :
    Lagrangian: "/home/edo20/Piscaglia/Shared_docker_folder/Shared_CTTP/testEdo/Labs/Lab0506/combustor2D-wf-KHRT-highT/VTK/lagrangian/sprayCloud/sprayCloud_1361.vtk"
        labels            : active origId typeId origProcId
        scalars           : d tc yDot injector KHindex rho d0 sigma Cp ms user tMom dTarget nParticle age mass0 T tTurb mu YC7H16(l) y liquidCore
        vectors           : UTurb U position0
        spherical tensors :
        symm tensors      :
        tensors           :
Time: 0.04
    volScalarField::Internal   : sprayCloud:hsTrans sprayCloud:UCoeff sprayCloud:rhoTrans_CO2 sprayCloud:hsCoeff sprayCloud:rhoTrans_H2O sprayCloud:rhoTrans_N2 sprayCloud:rhoTrans_C7H16 sprayCloud:rhoTrans_O2
    volVectorField::Internal   : sprayCloud:UTrans
    volScalarFields            : C7H16 Ma sprayCloudTheta rho CO2 k H2O alphat nut N2 O2 p T epsilon yPlus
    volVectorFields            : U

    Internal  : "/home/edo20/Piscaglia/Shared_docker_folder/Shared_CTTP/testEdo/Labs/Lab0506/combustor2D-wf-KHRT-highT/VTK/combustor2D-wf-KHRT-highT_2093.vtk"
    Patch     : "/home/edo20/Piscaglia/Shared_docker_folder/Shared_CTTP/testEdo/Labs/Lab0506/combustor2D-wf-KHRT-highT/VTK/inlet/inlet_2093.vtk"
    Patch     : "/home/edo20/Piscaglia/Shared_docker_folder/Shared_CTTP/testEdo/Labs/Lab0506/combustor2D-wf-KHRT-highT/VTK/outlet/outlet_2093.vtk"
    Patch     : "/home/edo20/Piscaglia/Shared_docker_folder/Shared_CTTP/testEdo/Labs/Lab0506/combustor2D-wf-KHRT-highT/VTK/splitter/splitter_2093.vtk"
    Patch     : "/home/edo20/Piscaglia/Shared_docker_folder/Shared_CTTP/testEdo/Labs/Lab0506/combustor2D-wf-KHRT-highT/VTK/fuel_inlet/fuel_inlet_2093.vtk"
    Patch     : "/home/edo20/Piscaglia/Shared_docker_folder/Shared_CTTP/testEdo/Labs/Lab0506/combustor2D-wf-KHRT-highT/VTK/back/back_2093.vtk"
    Patch     : "/home/edo20/Piscaglia/Shared_docker_folder/Shared_CTTP/testEdo/Labs/Lab0506/combustor2D-wf-KHRT-highT/VTK/frontAndBack/frontAndBack_2093.vtk"
    Patch     : "/home/edo20/Piscaglia/Shared_docker_folder/Shared_CTTP/testEdo/Labs/Lab0506/combustor2D-wf-KHRT-highT/VTK/region0_to_wallFilmRegion_wallFilmFaces/region0_to_wallFilmRegion_wallFilmFaces_2093.vtk"
    surfScalarFields  : phi
    FaceZone  : "/home/edo20/Piscaglia/Shared_docker_folder/Shared_CTTP/testEdo/Labs/Lab0506/combustor2D-wf-KHRT-highT/VTK/wallFilmFaces/wallFilmFaces_2093.vtk"
    Lagrangian: "/home/edo20/Piscaglia/Shared_docker_folder/Shared_CTTP/testEdo/Labs/Lab0506/combustor2D-wf-KHRT-highT/VTK/lagrangian/sprayCloudTracks/sprayCloudTracks_2093.vtk"
        labels            : active origId typeId origProcId
        scalars           : d tc yDot injector KHindex rho d0 sigma Cp ms user tMom dTarget nParticle age mass0 T tTurb mu YC7H16(l) y liquidCore
        vectors           : UTurb U position0
        spherical tensors :
        symm tensors      :
        tensors           :
    Lagrangian: "/home/edo20/Piscaglia/Shared_docker_folder/Shared_CTTP/testEdo/Labs/Lab0506/combustor2D-wf-KHRT-highT/VTK/lagrangian/sprayCloud/sprayCloud_2093.vtk"
        labels            : active origId typeId origProcId
        scalars           : d tc yDot injector KHindex rho d0 sigma Cp ms user tMom dTarget nParticle age mass0 T tTurb mu YC7H16(l) y liquidCore
        vectors           : UTurb U position0
        spherical tensors :
        symm tensors      :
        tensors           :
Time: 0.05
    volScalarField::Internal   : sprayCloud:hsTrans sprayCloud:UCoeff sprayCloud:rhoTrans_CO2 sprayCloud:hsCoeff sprayCloud:rhoTrans_H2O sprayCloud:rhoTrans_N2 sprayCloud:rhoTrans_C7H16 sprayCloud:rhoTrans_O2
    volVectorField::Internal   : sprayCloud:UTrans
    volScalarFields            : C7H16 Ma sprayCloudTheta rho CO2 k H2O alphat nut N2 O2 p T epsilon yPlus
    volVectorFields            : U

    Internal  : "/home/edo20/Piscaglia/Shared_docker_folder/Shared_CTTP/testEdo/Labs/Lab0506/combustor2D-wf-KHRT-highT/VTK/combustor2D-wf-KHRT-highT_2920.vtk"
    Patch     : "/home/edo20/Piscaglia/Shared_docker_folder/Shared_CTTP/testEdo/Labs/Lab0506/combustor2D-wf-KHRT-highT/VTK/inlet/inlet_2920.vtk"
    Patch     : "/home/edo20/Piscaglia/Shared_docker_folder/Shared_CTTP/testEdo/Labs/Lab0506/combustor2D-wf-KHRT-highT/VTK/outlet/outlet_2920.vtk"
    Patch     : "/home/edo20/Piscaglia/Shared_docker_folder/Shared_CTTP/testEdo/Labs/Lab0506/combustor2D-wf-KHRT-highT/VTK/splitter/splitter_2920.vtk"
    Patch     : "/home/edo20/Piscaglia/Shared_docker_folder/Shared_CTTP/testEdo/Labs/Lab0506/combustor2D-wf-KHRT-highT/VTK/fuel_inlet/fuel_inlet_2920.vtk"
    Patch     : "/home/edo20/Piscaglia/Shared_docker_folder/Shared_CTTP/testEdo/Labs/Lab0506/combustor2D-wf-KHRT-highT/VTK/back/back_2920.vtk"
    Patch     : "/home/edo20/Piscaglia/Shared_docker_folder/Shared_CTTP/testEdo/Labs/Lab0506/combustor2D-wf-KHRT-highT/VTK/frontAndBack/frontAndBack_2920.vtk"
    Patch     : "/home/edo20/Piscaglia/Shared_docker_folder/Shared_CTTP/testEdo/Labs/Lab0506/combustor2D-wf-KHRT-highT/VTK/region0_to_wallFilmRegion_wallFilmFaces/region0_to_wallFilmRegion_wallFilmFaces_2920.vtk"
    surfScalarFields  : phi
    FaceZone  : "/home/edo20/Piscaglia/Shared_docker_folder/Shared_CTTP/testEdo/Labs/Lab0506/combustor2D-wf-KHRT-highT/VTK/wallFilmFaces/wallFilmFaces_2920.vtk"
    Lagrangian: "/home/edo20/Piscaglia/Shared_docker_folder/Shared_CTTP/testEdo/Labs/Lab0506/combustor2D-wf-KHRT-highT/VTK/lagrangian/sprayCloudTracks/sprayCloudTracks_2920.vtk"
        labels            : active origId typeId origProcId
        scalars           : d tc yDot injector KHindex rho d0 sigma Cp ms user tMom dTarget nParticle age mass0 T tTurb mu YC7H16(l) y liquidCore
        vectors           : UTurb U position0
        spherical tensors :
        symm tensors      :
        tensors           :
    Lagrangian: "/home/edo20/Piscaglia/Shared_docker_folder/Shared_CTTP/testEdo/Labs/Lab0506/combustor2D-wf-KHRT-highT/VTK/lagrangian/sprayCloud/sprayCloud_2920.vtk"
        labels            : active origId typeId origProcId
        scalars           : d tc yDot injector KHindex rho d0 sigma Cp ms user tMom dTarget nParticle age mass0 T tTurb mu YC7H16(l) y liquidCore
        vectors           : UTurb U position0
        spherical tensors :
        symm tensors      :
        tensors           :
Time: 0.06
    volScalarField::Internal   : sprayCloud:hsTrans sprayCloud:UCoeff sprayCloud:rhoTrans_CO2 sprayCloud:hsCoeff sprayCloud:rhoTrans_H2O sprayCloud:rhoTrans_N2 sprayCloud:rhoTrans_C7H16 sprayCloud:rhoTrans_O2
    volVectorField::Internal   : sprayCloud:UTrans
    volScalarFields            : C7H16 Ma sprayCloudTheta rho CO2 k H2O alphat nut N2 O2 p T epsilon yPlus
    volVectorFields            : U

    Internal  : "/home/edo20/Piscaglia/Shared_docker_folder/Shared_CTTP/testEdo/Labs/Lab0506/combustor2D-wf-KHRT-highT/VTK/combustor2D-wf-KHRT-highT_3773.vtk"
    Patch     : "/home/edo20/Piscaglia/Shared_docker_folder/Shared_CTTP/testEdo/Labs/Lab0506/combustor2D-wf-KHRT-highT/VTK/inlet/inlet_3773.vtk"
    Patch     : "/home/edo20/Piscaglia/Shared_docker_folder/Shared_CTTP/testEdo/Labs/Lab0506/combustor2D-wf-KHRT-highT/VTK/outlet/outlet_3773.vtk"
    Patch     : "/home/edo20/Piscaglia/Shared_docker_folder/Shared_CTTP/testEdo/Labs/Lab0506/combustor2D-wf-KHRT-highT/VTK/splitter/splitter_3773.vtk"
    Patch     : "/home/edo20/Piscaglia/Shared_docker_folder/Shared_CTTP/testEdo/Labs/Lab0506/combustor2D-wf-KHRT-highT/VTK/fuel_inlet/fuel_inlet_3773.vtk"
    Patch     : "/home/edo20/Piscaglia/Shared_docker_folder/Shared_CTTP/testEdo/Labs/Lab0506/combustor2D-wf-KHRT-highT/VTK/back/back_3773.vtk"
    Patch     : "/home/edo20/Piscaglia/Shared_docker_folder/Shared_CTTP/testEdo/Labs/Lab0506/combustor2D-wf-KHRT-highT/VTK/frontAndBack/frontAndBack_3773.vtk"
    Patch     : "/home/edo20/Piscaglia/Shared_docker_folder/Shared_CTTP/testEdo/Labs/Lab0506/combustor2D-wf-KHRT-highT/VTK/region0_to_wallFilmRegion_wallFilmFaces/region0_to_wallFilmRegion_wallFilmFaces_3773.vtk"
    surfScalarFields  : phi
    FaceZone  : "/home/edo20/Piscaglia/Shared_docker_folder/Shared_CTTP/testEdo/Labs/Lab0506/combustor2D-wf-KHRT-highT/VTK/wallFilmFaces/wallFilmFaces_3773.vtk"
    Lagrangian: "/home/edo20/Piscaglia/Shared_docker_folder/Shared_CTTP/testEdo/Labs/Lab0506/combustor2D-wf-KHRT-highT/VTK/lagrangian/sprayCloudTracks/sprayCloudTracks_3773.vtk"
        labels            : active origId typeId origProcId
        scalars           : d tc yDot injector KHindex rho d0 sigma Cp ms user tMom dTarget nParticle age mass0 T tTurb mu YC7H16(l) y liquidCore
        vectors           : UTurb U position0
        spherical tensors :
        symm tensors      :
        tensors           :
    Lagrangian: "/home/edo20/Piscaglia/Shared_docker_folder/Shared_CTTP/testEdo/Labs/Lab0506/combustor2D-wf-KHRT-highT/VTK/lagrangian/sprayCloud/sprayCloud_3773.vtk"
        labels            : active origId typeId origProcId
        scalars           : d tc yDot injector KHindex rho d0 sigma Cp ms user tMom dTarget nParticle age mass0 T tTurb mu YC7H16(l) y liquidCore
        vectors           : UTurb U position0
        spherical tensors :
        symm tensors      :
        tensors           :
Time: 0.07
    volScalarField::Internal   : sprayCloud:hsTrans sprayCloud:UCoeff sprayCloud:rhoTrans_CO2 sprayCloud:hsCoeff sprayCloud:rhoTrans_H2O sprayCloud:rhoTrans_N2 sprayCloud:rhoTrans_C7H16 sprayCloud:rhoTrans_O2
    volVectorField::Internal   : sprayCloud:UTrans
    volScalarFields            : C7H16 Ma sprayCloudTheta rho CO2 k H2O alphat nut N2 O2 p T epsilon yPlus
    volVectorFields            : U

    Internal  : "/home/edo20/Piscaglia/Shared_docker_folder/Shared_CTTP/testEdo/Labs/Lab0506/combustor2D-wf-KHRT-highT/VTK/combustor2D-wf-KHRT-highT_4624.vtk"
    Patch     : "/home/edo20/Piscaglia/Shared_docker_folder/Shared_CTTP/testEdo/Labs/Lab0506/combustor2D-wf-KHRT-highT/VTK/inlet/inlet_4624.vtk"
    Patch     : "/home/edo20/Piscaglia/Shared_docker_folder/Shared_CTTP/testEdo/Labs/Lab0506/combustor2D-wf-KHRT-highT/VTK/outlet/outlet_4624.vtk"
    Patch     : "/home/edo20/Piscaglia/Shared_docker_folder/Shared_CTTP/testEdo/Labs/Lab0506/combustor2D-wf-KHRT-highT/VTK/splitter/splitter_4624.vtk"
    Patch     : "/home/edo20/Piscaglia/Shared_docker_folder/Shared_CTTP/testEdo/Labs/Lab0506/combustor2D-wf-KHRT-highT/VTK/fuel_inlet/fuel_inlet_4624.vtk"
    Patch     : "/home/edo20/Piscaglia/Shared_docker_folder/Shared_CTTP/testEdo/Labs/Lab0506/combustor2D-wf-KHRT-highT/VTK/back/back_4624.vtk"
    Patch     : "/home/edo20/Piscaglia/Shared_docker_folder/Shared_CTTP/testEdo/Labs/Lab0506/combustor2D-wf-KHRT-highT/VTK/frontAndBack/frontAndBack_4624.vtk"
    Patch     : "/home/edo20/Piscaglia/Shared_docker_folder/Shared_CTTP/testEdo/Labs/Lab0506/combustor2D-wf-KHRT-highT/VTK/region0_to_wallFilmRegion_wallFilmFaces/region0_to_wallFilmRegion_wallFilmFaces_4624.vtk"
    surfScalarFields  : phi
    FaceZone  : "/home/edo20/Piscaglia/Shared_docker_folder/Shared_CTTP/testEdo/Labs/Lab0506/combustor2D-wf-KHRT-highT/VTK/wallFilmFaces/wallFilmFaces_4624.vtk"
    Lagrangian: "/home/edo20/Piscaglia/Shared_docker_folder/Shared_CTTP/testEdo/Labs/Lab0506/combustor2D-wf-KHRT-highT/VTK/lagrangian/sprayCloudTracks/sprayCloudTracks_4624.vtk"
        labels            : active origId typeId origProcId
        scalars           : d tc yDot injector KHindex rho d0 sigma Cp ms user tMom dTarget nParticle age mass0 T tTurb mu YC7H16(l) y liquidCore
        vectors           : UTurb U position0
        spherical tensors :
        symm tensors      :
        tensors           :
    Lagrangian: "/home/edo20/Piscaglia/Shared_docker_folder/Shared_CTTP/testEdo/Labs/Lab0506/combustor2D-wf-KHRT-highT/VTK/lagrangian/sprayCloud/sprayCloud_4624.vtk"
        labels            : active origId typeId origProcId
        scalars           : d tc yDot injector KHindex rho d0 sigma Cp ms user tMom dTarget nParticle age mass0 T tTurb mu YC7H16(l) y liquidCore
        vectors           : UTurb U position0
        spherical tensors :
        symm tensors      :
        tensors           :
Time: 0.08
    volScalarField::Internal   : sprayCloud:hsTrans sprayCloud:UCoeff sprayCloud:rhoTrans_CO2 sprayCloud:hsCoeff sprayCloud:rhoTrans_H2O sprayCloud:rhoTrans_N2 sprayCloud:rhoTrans_C7H16 sprayCloud:rhoTrans_O2
    volVectorField::Internal   : sprayCloud:UTrans
    volScalarFields            : C7H16 Ma sprayCloudTheta rho CO2 k H2O alphat nut N2 O2 p T epsilon yPlus
    volVectorFields            : U

    Internal  : "/home/edo20/Piscaglia/Shared_docker_folder/Shared_CTTP/testEdo/Labs/Lab0506/combustor2D-wf-KHRT-highT/VTK/combustor2D-wf-KHRT-highT_5438.vtk"
    Patch     : "/home/edo20/Piscaglia/Shared_docker_folder/Shared_CTTP/testEdo/Labs/Lab0506/combustor2D-wf-KHRT-highT/VTK/inlet/inlet_5438.vtk"
    Patch     : "/home/edo20/Piscaglia/Shared_docker_folder/Shared_CTTP/testEdo/Labs/Lab0506/combustor2D-wf-KHRT-highT/VTK/outlet/outlet_5438.vtk"
    Patch     : "/home/edo20/Piscaglia/Shared_docker_folder/Shared_CTTP/testEdo/Labs/Lab0506/combustor2D-wf-KHRT-highT/VTK/splitter/splitter_5438.vtk"
    Patch     : "/home/edo20/Piscaglia/Shared_docker_folder/Shared_CTTP/testEdo/Labs/Lab0506/combustor2D-wf-KHRT-highT/VTK/fuel_inlet/fuel_inlet_5438.vtk"
    Patch     : "/home/edo20/Piscaglia/Shared_docker_folder/Shared_CTTP/testEdo/Labs/Lab0506/combustor2D-wf-KHRT-highT/VTK/back/back_5438.vtk"
    Patch     : "/home/edo20/Piscaglia/Shared_docker_folder/Shared_CTTP/testEdo/Labs/Lab0506/combustor2D-wf-KHRT-highT/VTK/frontAndBack/frontAndBack_5438.vtk"
    Patch     : "/home/edo20/Piscaglia/Shared_docker_folder/Shared_CTTP/testEdo/Labs/Lab0506/combustor2D-wf-KHRT-highT/VTK/region0_to_wallFilmRegion_wallFilmFaces/region0_to_wallFilmRegion_wallFilmFaces_5438.vtk"
    surfScalarFields  : phi
    FaceZone  : "/home/edo20/Piscaglia/Shared_docker_folder/Shared_CTTP/testEdo/Labs/Lab0506/combustor2D-wf-KHRT-highT/VTK/wallFilmFaces/wallFilmFaces_5438.vtk"
    Lagrangian: "/home/edo20/Piscaglia/Shared_docker_folder/Shared_CTTP/testEdo/Labs/Lab0506/combustor2D-wf-KHRT-highT/VTK/lagrangian/sprayCloudTracks/sprayCloudTracks_5438.vtk"
        labels            : active origId typeId origProcId
        scalars           : d tc yDot injector KHindex rho d0 sigma Cp ms user tMom dTarget nParticle age mass0 T tTurb mu YC7H16(l) y liquidCore
        vectors           : UTurb U position0
        spherical tensors :
        symm tensors      :
        tensors           :
    Lagrangian: "/home/edo20/Piscaglia/Shared_docker_folder/Shared_CTTP/testEdo/Labs/Lab0506/combustor2D-wf-KHRT-highT/VTK/lagrangian/sprayCloud/sprayCloud_5438.vtk"
        labels            : active origId typeId origProcId
        scalars           : d tc yDot injector KHindex rho d0 sigma Cp ms user tMom dTarget nParticle age mass0 T tTurb mu YC7H16(l) y liquidCore
        vectors           : UTurb U position0
        spherical tensors :
        symm tensors      :
        tensors           :
Time: 0.09
    volScalarField::Internal   : sprayCloud:hsTrans sprayCloud:UCoeff sprayCloud:rhoTrans_CO2 sprayCloud:hsCoeff sprayCloud:rhoTrans_H2O sprayCloud:rhoTrans_N2 sprayCloud:rhoTrans_C7H16 sprayCloud:rhoTrans_O2
    volVectorField::Internal   : sprayCloud:UTrans
    volScalarFields            : C7H16 Ma sprayCloudTheta rho CO2 k H2O alphat nut N2 O2 p T epsilon yPlus
    volVectorFields            : U

    Internal  : "/home/edo20/Piscaglia/Shared_docker_folder/Shared_CTTP/testEdo/Labs/Lab0506/combustor2D-wf-KHRT-highT/VTK/combustor2D-wf-KHRT-highT_6180.vtk"
    Patch     : "/home/edo20/Piscaglia/Shared_docker_folder/Shared_CTTP/testEdo/Labs/Lab0506/combustor2D-wf-KHRT-highT/VTK/inlet/inlet_6180.vtk"
    Patch     : "/home/edo20/Piscaglia/Shared_docker_folder/Shared_CTTP/testEdo/Labs/Lab0506/combustor2D-wf-KHRT-highT/VTK/outlet/outlet_6180.vtk"
    Patch     : "/home/edo20/Piscaglia/Shared_docker_folder/Shared_CTTP/testEdo/Labs/Lab0506/combustor2D-wf-KHRT-highT/VTK/splitter/splitter_6180.vtk"
    Patch     : "/home/edo20/Piscaglia/Shared_docker_folder/Shared_CTTP/testEdo/Labs/Lab0506/combustor2D-wf-KHRT-highT/VTK/fuel_inlet/fuel_inlet_6180.vtk"
    Patch     : "/home/edo20/Piscaglia/Shared_docker_folder/Shared_CTTP/testEdo/Labs/Lab0506/combustor2D-wf-KHRT-highT/VTK/back/back_6180.vtk"
    Patch     : "/home/edo20/Piscaglia/Shared_docker_folder/Shared_CTTP/testEdo/Labs/Lab0506/combustor2D-wf-KHRT-highT/VTK/frontAndBack/frontAndBack_6180.vtk"
    Patch     : "/home/edo20/Piscaglia/Shared_docker_folder/Shared_CTTP/testEdo/Labs/Lab0506/combustor2D-wf-KHRT-highT/VTK/region0_to_wallFilmRegion_wallFilmFaces/region0_to_wallFilmRegion_wallFilmFaces_6180.vtk"
    surfScalarFields  : phi
    FaceZone  : "/home/edo20/Piscaglia/Shared_docker_folder/Shared_CTTP/testEdo/Labs/Lab0506/combustor2D-wf-KHRT-highT/VTK/wallFilmFaces/wallFilmFaces_6180.vtk"
    Lagrangian: "/home/edo20/Piscaglia/Shared_docker_folder/Shared_CTTP/testEdo/Labs/Lab0506/combustor2D-wf-KHRT-highT/VTK/lagrangian/sprayCloudTracks/sprayCloudTracks_6180.vtk"
        labels            : active origId typeId origProcId
        scalars           : d tc yDot injector KHindex rho d0 sigma Cp ms user tMom dTarget nParticle age mass0 T tTurb mu YC7H16(l) y liquidCore
        vectors           : UTurb U position0
        spherical tensors :
        symm tensors      :
        tensors           :
    Lagrangian: "/home/edo20/Piscaglia/Shared_docker_folder/Shared_CTTP/testEdo/Labs/Lab0506/combustor2D-wf-KHRT-highT/VTK/lagrangian/sprayCloud/sprayCloud_6180.vtk"
        labels            : active origId typeId origProcId
        scalars           : d tc yDot injector KHindex rho d0 sigma Cp ms user tMom dTarget nParticle age mass0 T tTurb mu YC7H16(l) y liquidCore
        vectors           : UTurb U position0
        spherical tensors :
        symm tensors      :
        tensors           :
Time: 0.1
    volScalarField::Internal   : sprayCloud:hsTrans sprayCloud:UCoeff sprayCloud:rhoTrans_CO2 sprayCloud:hsCoeff sprayCloud:rhoTrans_H2O sprayCloud:rhoTrans_N2 sprayCloud:rhoTrans_C7H16 sprayCloud:rhoTrans_O2
    volVectorField::Internal   : sprayCloud:UTrans
    volScalarFields            : C7H16 Ma sprayCloudTheta rho CO2 k H2O alphat nut N2 O2 p T epsilon yPlus
    volVectorFields            : U

    Internal  : "/home/edo20/Piscaglia/Shared_docker_folder/Shared_CTTP/testEdo/Labs/Lab0506/combustor2D-wf-KHRT-highT/VTK/combustor2D-wf-KHRT-highT_6818.vtk"
    Patch     : "/home/edo20/Piscaglia/Shared_docker_folder/Shared_CTTP/testEdo/Labs/Lab0506/combustor2D-wf-KHRT-highT/VTK/inlet/inlet_6818.vtk"
    Patch     : "/home/edo20/Piscaglia/Shared_docker_folder/Shared_CTTP/testEdo/Labs/Lab0506/combustor2D-wf-KHRT-highT/VTK/outlet/outlet_6818.vtk"
    Patch     : "/home/edo20/Piscaglia/Shared_docker_folder/Shared_CTTP/testEdo/Labs/Lab0506/combustor2D-wf-KHRT-highT/VTK/splitter/splitter_6818.vtk"
    Patch     : "/home/edo20/Piscaglia/Shared_docker_folder/Shared_CTTP/testEdo/Labs/Lab0506/combustor2D-wf-KHRT-highT/VTK/fuel_inlet/fuel_inlet_6818.vtk"
    Patch     : "/home/edo20/Piscaglia/Shared_docker_folder/Shared_CTTP/testEdo/Labs/Lab0506/combustor2D-wf-KHRT-highT/VTK/back/back_6818.vtk"
    Patch     : "/home/edo20/Piscaglia/Shared_docker_folder/Shared_CTTP/testEdo/Labs/Lab0506/combustor2D-wf-KHRT-highT/VTK/frontAndBack/frontAndBack_6818.vtk"
    Patch     : "/home/edo20/Piscaglia/Shared_docker_folder/Shared_CTTP/testEdo/Labs/Lab0506/combustor2D-wf-KHRT-highT/VTK/region0_to_wallFilmRegion_wallFilmFaces/region0_to_wallFilmRegion_wallFilmFaces_6818.vtk"
    surfScalarFields  : phi
    FaceZone  : "/home/edo20/Piscaglia/Shared_docker_folder/Shared_CTTP/testEdo/Labs/Lab0506/combustor2D-wf-KHRT-highT/VTK/wallFilmFaces/wallFilmFaces_6818.vtk"
    Lagrangian: "/home/edo20/Piscaglia/Shared_docker_folder/Shared_CTTP/testEdo/Labs/Lab0506/combustor2D-wf-KHRT-highT/VTK/lagrangian/sprayCloudTracks/sprayCloudTracks_6818.vtk"
        labels            : active origId typeId origProcId
        scalars           : d tc yDot injector KHindex rho d0 sigma Cp ms user tMom dTarget nParticle age mass0 T tTurb mu YC7H16(l) y liquidCore
        vectors           : UTurb U position0
        spherical tensors :
        symm tensors      :
        tensors           :
    Lagrangian: "/home/edo20/Piscaglia/Shared_docker_folder/Shared_CTTP/testEdo/Labs/Lab0506/combustor2D-wf-KHRT-highT/VTK/lagrangian/sprayCloud/sprayCloud_6818.vtk"
        labels            : active origId typeId origProcId
        scalars           : d tc yDot injector KHindex rho d0 sigma Cp ms user tMom dTarget nParticle age mass0 T tTurb mu YC7H16(l) y liquidCore
        vectors           : UTurb U position0
        spherical tensors :
        symm tensors      :
        tensors           :
End

