/*---------------------------------------------------------------------------*\
  =========                 |
  \\      /  F ield         | OpenFOAM: The Open Source CFD Toolbox
   \\    /   O peration     | Website:  https://openfoam.org
    \\  /    A nd           | Version:  8
     \\/     M anipulation  |
\*---------------------------------------------------------------------------*/
Build  : 8-9b73cf21a682
Exec   : blockMesh
Date   : Oct 29 2020
Time   : 09:30:00
Host   : "14601c640c61"
PID    : 4870
I/O    : uncollated
Case   : /home/student/OpenFOAM/student-8/run/Shared_CTTP/Test_Edo/combustor_orig
nProcs : 1
sigFpe : Enabling floating point exception trapping (FOAM_SIGFPE).
fileModificationChecking : Monitoring run-time modified files using timeStampMaster (fileModificationSkew 10)
allowSystemOperations : Allowing user-supplied system call operations

// * * * * * * * * * * * * * * * * * * * * * * * * * * * * * * * * * * * * * //
Create time

Deleting polyMesh directory
    "/home/student/OpenFOAM/student-8/run/Shared_CTTP/Test_Edo/combustor_orig/constant/polyMesh"
Creating block mesh from
    "system/blockMeshDict"
Using #calcEntry at line 28 in file "/home/student/OpenFOAM/student-8/run/Shared_CTTP/Test_Edo/combustor_orig/system/blockMeshDict"
Using #codeStream with "/home/student/OpenFOAM/student-8/run/Shared_CTTP/Test_Edo/combustor_orig/dynamicCode/platforms/linux64GccDPInt32Opt/lib/libcodeStream_e67549a6caeaae739fb865ffedcb311f529500b2.so"
Using #calcEntry at line 30 in file "/home/student/OpenFOAM/student-8/run/Shared_CTTP/Test_Edo/combustor_orig/system/blockMeshDict"
Using #calcEntry at line 35 in file "/home/student/OpenFOAM/student-8/run/Shared_CTTP/Test_Edo/combustor_orig/system/blockMeshDict"
Using #codeStream with "/home/student/OpenFOAM/student-8/run/Shared_CTTP/Test_Edo/combustor_orig/dynamicCode/platforms/linux64GccDPInt32Opt/lib/libcodeStream_b193d61e981930e99d6423facfe32a42e4477ee5.so"
Using #calcEntry at line 36 in file "/home/student/OpenFOAM/student-8/run/Shared_CTTP/Test_Edo/combustor_orig/system/blockMeshDict"
Using #codeStream with "/home/student/OpenFOAM/student-8/run/Shared_CTTP/Test_Edo/combustor_orig/dynamicCode/platforms/linux64GccDPInt32Opt/lib/libcodeStream_298fbc32abfff7fa183f94479943871a7cfdee5e.so"
Using #calcEntry at line 37 in file "/home/student/OpenFOAM/student-8/run/Shared_CTTP/Test_Edo/combustor_orig/system/blockMeshDict"
Using #codeStream with "/home/student/OpenFOAM/student-8/run/Shared_CTTP/Test_Edo/combustor_orig/dynamicCode/platforms/linux64GccDPInt32Opt/lib/libcodeStream_9fa2d97750129318ca61b7a488b31a97c3b5b806.so"
Using #calcEntry at line 38 in file "/home/student/OpenFOAM/student-8/run/Shared_CTTP/Test_Edo/combustor_orig/system/blockMeshDict"
Using #codeStream with "/home/student/OpenFOAM/student-8/run/Shared_CTTP/Test_Edo/combustor_orig/dynamicCode/platforms/linux64GccDPInt32Opt/lib/libcodeStream_329d4a3917352671f77c376349bf52d8d4bd70b2.so"
Using #calcEntry at line 39 in file "/home/student/OpenFOAM/student-8/run/Shared_CTTP/Test_Edo/combustor_orig/system/blockMeshDict"
Using #codeStream with "/home/student/OpenFOAM/student-8/run/Shared_CTTP/Test_Edo/combustor_orig/dynamicCode/platforms/linux64GccDPInt32Opt/lib/libcodeStream_b49508fd279f25917183be3ca43764a38c6deac6.so"
Using #calcEntry at line 40 in file "/home/student/OpenFOAM/student-8/run/Shared_CTTP/Test_Edo/combustor_orig/system/blockMeshDict"
Using #codeStream with "/home/student/OpenFOAM/student-8/run/Shared_CTTP/Test_Edo/combustor_orig/dynamicCode/platforms/linux64GccDPInt32Opt/lib/libcodeStream_289a824f72729ff58803344bd0ed5ae6d61ea58b.so"
Using #calcEntry at line 41 in file "/home/student/OpenFOAM/student-8/run/Shared_CTTP/Test_Edo/combustor_orig/system/blockMeshDict"
Using #codeStream with "/home/student/OpenFOAM/student-8/run/Shared_CTTP/Test_Edo/combustor_orig/dynamicCode/platforms/linux64GccDPInt32Opt/lib/libcodeStream_5e652868cb1b5070d24cb324d5c14d7f6e4420a2.so"
Using #calcEntry at line 42 in file "/home/student/OpenFOAM/student-8/run/Shared_CTTP/Test_Edo/combustor_orig/system/blockMeshDict"
Using #codeStream with "/home/student/OpenFOAM/student-8/run/Shared_CTTP/Test_Edo/combustor_orig/dynamicCode/platforms/linux64GccDPInt32Opt/lib/libcodeStream_b224c93066a8ea45d2d69096e68e9fc3980db465.so"
Using #calcEntry at line 46 in file "/home/student/OpenFOAM/student-8/run/Shared_CTTP/Test_Edo/combustor_orig/system/blockMeshDict"
Using #codeStream with "/home/student/OpenFOAM/student-8/run/Shared_CTTP/Test_Edo/combustor_orig/dynamicCode/platforms/linux64GccDPInt32Opt/lib/libcodeStream_158f74959fb94ea7c91c24f0175677c992f185b9.so"
Using #calcEntry at line 47 in file "/home/student/OpenFOAM/student-8/run/Shared_CTTP/Test_Edo/combustor_orig/system/blockMeshDict"
Using #codeStream with "/home/student/OpenFOAM/student-8/run/Shared_CTTP/Test_Edo/combustor_orig/dynamicCode/platforms/linux64GccDPInt32Opt/lib/libcodeStream_5a512016ea91645889ca17987f3f8d489f0e92e2.so"
Using #calcEntry at line 48 in file "/home/student/OpenFOAM/student-8/run/Shared_CTTP/Test_Edo/combustor_orig/system/blockMeshDict"
Using #codeStream with "/home/student/OpenFOAM/student-8/run/Shared_CTTP/Test_Edo/combustor_orig/dynamicCode/platforms/linux64GccDPInt32Opt/lib/libcodeStream_f16c36c9ec5ea6d530bf6faf0e80b6bc241efec2.so"
Using #calcEntry at line 49 in file "/home/student/OpenFOAM/student-8/run/Shared_CTTP/Test_Edo/combustor_orig/system/blockMeshDict"
Using #codeStream with "/home/student/OpenFOAM/student-8/run/Shared_CTTP/Test_Edo/combustor_orig/dynamicCode/platforms/linux64GccDPInt32Opt/lib/libcodeStream_c0938c5d37c92607935c22c5dbc3924260bc6288.so"
Using #calcEntry at line 50 in file "/home/student/OpenFOAM/student-8/run/Shared_CTTP/Test_Edo/combustor_orig/system/blockMeshDict"
Using #codeStream with "/home/student/OpenFOAM/student-8/run/Shared_CTTP/Test_Edo/combustor_orig/dynamicCode/platforms/linux64GccDPInt32Opt/lib/libcodeStream_bb5b9ad8a37e0b9ff037a090e40d825cabe7c90d.so"
Using #calcEntry at line 51 in file "/home/student/OpenFOAM/student-8/run/Shared_CTTP/Test_Edo/combustor_orig/system/blockMeshDict"
Using #codeStream with "/home/student/OpenFOAM/student-8/run/Shared_CTTP/Test_Edo/combustor_orig/dynamicCode/platforms/linux64GccDPInt32Opt/lib/libcodeStream_c568956f8a039740622ffb864da624b4b76b60d8.so"
Using #calcEntry at line 52 in file "/home/student/OpenFOAM/student-8/run/Shared_CTTP/Test_Edo/combustor_orig/system/blockMeshDict"
Using #codeStream with "/home/student/OpenFOAM/student-8/run/Shared_CTTP/Test_Edo/combustor_orig/dynamicCode/platforms/linux64GccDPInt32Opt/lib/libcodeStream_45ee1704646a922b50bdd7d935afa40a1cdc6cd5.so"
Using #calcEntry at line 53 in file "/home/student/OpenFOAM/student-8/run/Shared_CTTP/Test_Edo/combustor_orig/system/blockMeshDict"
Using #codeStream with "/home/student/OpenFOAM/student-8/run/Shared_CTTP/Test_Edo/combustor_orig/dynamicCode/platforms/linux64GccDPInt32Opt/lib/libcodeStream_499497f0d73697d70541f589cab335d7cefa784c.so"
Creating block edges
No non-planar block faces defined
Creating topology blocks
Creating topology patches

Creating block mesh topology

Check topology

	Basic statistics
		Number of internal faces : 8
		Number of boundary faces : 14
		Number of defined boundary faces : 14
		Number of undefined boundary faces : 0
	Checking patch -> block consistency

Creating block offsets
Creating merge list .

Creating polyMesh from blockMesh
Creating patches
Creating cells
Creating points with scale 1
    Block 0 cell size :
        i : 0.01 .. 0.01
        j : 0.01 .. 0.01
        k : 0.01
    Block 1 cell size :
        i : 0.0114645 .. 0.0114645 0.0118809 .. 0.0118809 0.0114645 .. 0.0114645 0.0118809 .. 0.0118809 
        j : 0.01 .. 0.01 0.0117965 .. 0.0117965 0.01 .. 0.01 0.0117965 .. 0.0117965 
        k : 0.01
    Block 2 cell size :
        i : 0.01 .. 0.01 0.0117965 .. 0.0117965 0.01 .. 0.01 0.0117965 .. 0.0117965 
        j : 0.0114645 .. 0.0114645 0.0118809 .. 0.0118809 0.0114645 .. 0.0114645 0.0118809 .. 0.0118809 
        k : 0.01
    Block 3 cell size :
        i : 0.0114645 .. 0.0114645 0.0118809 .. 0.0118809 0.0114645 .. 0.0114645 0.0118809 .. 0.0118809 
        j : 0.0470483 0.0445926 0.0470483 .. 0.0470483 0.0445926 
        k : 0.01
    Block 4 cell size :
        i : 0.0470483 0.0445926 .. 0.0445926 0.0470483 .. 0.0470483 0.0445926 .. 0.0445926 
        j : 0.0114645 0.0118809 .. 0.0118809 0.0114645 .. 0.0114645 0.0118809 .. 0.0118809 
        k : 0.01

Writing polyMesh
----------------
Mesh Information
----------------
  boundingBox: (-0.24 -0.24 -0.3) (0.24 0.24 0.5)
  nPoints: 48033
  nCells: 46080
  nFaces: 140096
  nInternalFaces: 136384
----------------
Patches
----------------
  patch 0 (start: 136384 size: 2560) name: outerWalls
  patch 1 (start: 138944 size: 576) name: outlet
  patch 2 (start: 139520 size: 576) name: inlet

End

