/*---------------------------------------------------------------------------*\
  =========                 |
  \\      /  F ield         | OpenFOAM: The Open Source CFD Toolbox
   \\    /   O peration     | Website:  https://openfoam.org
    \\  /    A nd           | Version:  8
     \\/     M anipulation  |
\*---------------------------------------------------------------------------*/
Build  : 8-9b73cf21a682
Exec   : checkMesh
Date   : Oct 29 2020
Time   : 09:37:26
Host   : "14601c640c61"
PID    : 4895
I/O    : uncollated
Case   : /home/student/OpenFOAM/student-8/run/Shared_CTTP/Test_Edo/combustor_orig
nProcs : 1
sigFpe : Enabling floating point exception trapping (FOAM_SIGFPE).
fileModificationChecking : Monitoring run-time modified files using timeStampMaster (fileModificationSkew 10)
allowSystemOperations : Allowing user-supplied system call operations

// * * * * * * * * * * * * * * * * * * * * * * * * * * * * * * * * * * * * * //
Create time

Create polyMesh for time = 0

Time = 0

Mesh stats
    points:           48033
    faces:            140096
    internal faces:   136384
    cells:            46080
    faces per cell:   6
    boundary patches: 3
    point zones:      0
    face zones:       0
    cell zones:       0

Overall number of cells of each type:
    hexahedra:     46080
    prisms:        0
    wedges:        0
    pyramids:      0
    tet wedges:    0
    tetrahedra:    0
    polyhedra:     0

Checking topology...
    Boundary definition OK.
    Cell to face addressing OK.
    Point usage OK.
    Upper triangular ordering OK.
    Face vertices OK.
    Number of regions: 1 (OK).

Checking patch topology for multiply connected surfaces...
    Patch               Faces    Points   Surface topology                  
    outerWalls          2560     2592     ok (non-closed singly connected)  
    outlet              576      593      ok (non-closed singly connected)  
    inlet               576      593      ok (non-closed singly connected)  

Checking geometry...
    Overall domain bounding box (-0.24 -0.3 -0.24) (0.24 0.5 0.24)
    Mesh has 3 geometric (non-empty/wedge) directions (1 1 1)
    Mesh has 3 solution (non-empty) directions (1 1 1)
    Boundary openness (-4.8341e-17 5.43045e-16 -2.8491e-17) OK.
    Max cell openness = 2.69363e-16 OK.
    Max aspect ratio = 3.38487 OK.
    Minimum face area = 0.0001. Maximum face area = 0.000569447.  Face area magnitudes OK.
    Min volume = 1e-06. Max volume = 5.69447e-06.  Total volume = 0.143836.  Cell volumes OK.
    Mesh non-orthogonality Max: 29.7582 average: 6.01345
    Non-orthogonality check OK.
    Face pyramids OK.
    Max skewness = 0.582531 OK.
    Coupled point location match (average 0) OK.

Mesh OK.

End

