/*---------------------------------------------------------------------------*\
  =========                 |
  \\      /  F ield         | OpenFOAM: The Open Source CFD Toolbox
   \\    /   O peration     | Website:  https://openfoam.org
    \\  /    A nd           | Version:  8
     \\/     M anipulation  |
\*---------------------------------------------------------------------------*/
Build  : 8-9b73cf21a682
Exec   : surfaceFeatures -dict system/surfaceFeaturesDict
Date   : Oct 29 2020
Time   : 09:30:01
Host   : "14601c640c61"
PID    : 4875
I/O    : uncollated
Case   : /home/student/OpenFOAM/student-8/run/Shared_CTTP/Test_Edo/combustor_orig
nProcs : 1
sigFpe : Enabling floating point exception trapping (FOAM_SIGFPE).
fileModificationChecking : Monitoring run-time modified files using timeStampMaster (fileModificationSkew 10)
allowSystemOperations : Allowing user-supplied system call operations

// * * * * * * * * * * * * * * * * * * * * * * * * * * * * * * * * * * * * * //
Create time

Reading surfaceFeaturesDict

Surface            : "combustor.stl"


Feature line extraction is only valid on closed manifold surfaces.
Statistics:
Triangles    : 492
Vertices     : 464
Bounding Box : (-0.12 -0.3 -0.12) (0.12 0.5 0.12)


Constructing feature set from included angle 150
Selecting edges purely based on geometric tests: no
Removing all non-manifold edges (edges with > 2 connected faces) unless they cross multiple regions
Removing all open edges (edges with 1 connected face)

Initial feature set:
    feature points : 8
    feature edges  : 36
    of which
        region edges   : 36
        external edges : 0
        internal edges : 0


Final feature set:
points      : 32
edges       : 36
boundingBox : (-0.04 0.00149977 -0.015) (0.04 0.04 0.015)
point classification :
    convex feature points          :        8
    concave feature points         :        0
    mixed feature points           :        0
    other (non-feature) points     :       24
edge classification :
    external (convex angle) edges  :       36
    internal (concave angle) edges :        0
    flat region edges              :        0
    open edges                     :        0
    multiply connected edges       :        0

Writing extendedFeatureEdgeMesh to "constant/extendedFeatureEdgeMesh/combustor.extendedFeatureEdgeMesh"

Writing featureEdgeMesh to "constant/triSurface/combustor.eMesh"

ExecutionTime = 0 s  ClockTime = 0 s

End

