/*---------------------------------------------------------------------------*\
  =========                 |
  \\      /  F ield         | OpenFOAM: The Open Source CFD Toolbox
   \\    /   O peration     | Website:  https://openfoam.org
    \\  /    A nd           | Version:  8
     \\/     M anipulation  |
\*---------------------------------------------------------------------------*/
Build  : 8-9b73cf21a682
Exec   : surfaceCheck constant/triSurface/combustor_mm.stl
Date   : Oct 29 2020
Time   : 09:30:01
Host   : "14601c640c61"
PID    : 4873
I/O    : uncollated
Case   : /home/student/OpenFOAM/student-8/run/Shared_CTTP/Test_Edo/combustor_orig
nProcs : 1
sigFpe : Enabling floating point exception trapping (FOAM_SIGFPE).
fileModificationChecking : Monitoring run-time modified files using timeStampMaster (fileModificationSkew 10)
allowSystemOperations : Allowing user-supplied system call operations

// * * * * * * * * * * * * * * * * * * * * * * * * * * * * * * * * * * * * * //
Reading surface from "constant/triSurface/combustor_mm.stl" ...

Statistics:
Triangles    : 492
Vertices     : 464
Bounding Box : (-120 -300 -120) (120 500 120)

Region	Size
------	----
splitterFront	14
splitterRight	2
splitterRear	14
splitterLeft	2
splitterBottom	14
splitterTop	14
outerWalls	432


Surface has no illegal triangles.

Triangle quality (equilateral=1, collapsed=0):
    0 .. 0.05  : 0.898374
    0.05 .. 0.1  : 0.0203252
    0.1 .. 0.15  : 0.0121951
    0.15 .. 0.2  : 0.00813008
    0.2 .. 0.25  : 0.0365854
    0.25 .. 0.3  : 0
    0.3 .. 0.35  : 0
    0.35 .. 0.4  : 0
    0.4 .. 0.45  : 0
    0.45 .. 0.5  : 0.00813008
    0.5 .. 0.55  : 0
    0.55 .. 0.6  : 0
    0.6 .. 0.65  : 0
    0.65 .. 0.7  : 0.00813008
    0.7 .. 0.75  : 0.00813008
    0.75 .. 0.8  : 0
    0.8 .. 0.85  : 0
    0.85 .. 0.9  : 0
    0.9 .. 0.95  : 0
    0.95 .. 1  : 0

    min 0.00671695 for triangle 93
    max 0.706647 for triangle 10

Edges:
    min 0.934078 for edge 44 points (-1.37038 11.1776 15)(-0.467052 10.9399 15)
    max 800.008 for edge 119 points (98.2982 500 -68.8292)(100.259 -300 -65.9411)

Checking for points less than 1e-6 of bounding box ((240 800 240) metre) apart.
Found 0 nearby points.

Surface is not closed since not all edges connected to two faces:
    connected to one face : 432
    connected to >2 faces : 0
Conflicting face labels:432
Dumping conflicting face labels to "problemFaces"
Paste this into the input for surfaceSubset

Number of unconnected parts : 2
Splitting surface into parts ...

Writing zoning to "zone_combustor_mm.vtk"...

writing part 0 size 60 to "combustor_mm_0.obj"
writing part 1 size 432 to "combustor_mm_1.obj"

Number of zones (connected area with consistent normal) : 2
More than one normal orientation.


End

