/*---------------------------------------------------------------------------*\
  =========                 |
  \\      /  F ield         | OpenFOAM: The Open Source CFD Toolbox
   \\    /   O peration     | Website:  https://openfoam.org
    \\  /    A nd           | Version:  8
     \\/     M anipulation  |
\*---------------------------------------------------------------------------*/
Build  : 8
Exec   : simpleFoam
Date   : Dec 05 2020
Time   : 09:37:41
Host   : "edo20-HP-Pavilion-Notebook"
PID    : 13050
I/O    : uncollated
Case   : /home/edo20/Piscaglia/Shared_docker_folder/Shared_CTTP/Assignement/Lab02-incompFlows/combustorSimpleBlown
nProcs : 1
sigFpe : Enabling floating point exception trapping (FOAM_SIGFPE).
fileModificationChecking : Monitoring run-time modified files using timeStampMaster (fileModificationSkew 10)
allowSystemOperations : Allowing user-supplied system call operations

// * * * * * * * * * * * * * * * * * * * * * * * * * * * * * * * * * * * * * //
Create time

Create mesh for time = 0


SIMPLE: Convergence criteria found
        p: tolerance 0.001
        U: tolerance 0.0001
        "(k|epsilon|omega|f|v2)": tolerance 0.001

Reading field p

Reading field U

Reading/calculating face flux field phi

Selecting incompressible transport model Newtonian
Selecting turbulence model type RAS
Selecting RAS turbulence model kEpsilon
RAS
{
    model           kEpsilon;
    turbulence      on;
    printCoeffs     on;
    Cmu             0.09;
    C1              1.44;
    C2              1.92;
    C3              0;
    sigmak          1;
    sigmaEps        1.3;
}

No MRF models present

No finite volume options present

Starting time loop

forces force:
    Not including porosity effects
surfaceFieldValue pInlet:
    total faces  = 120
    total area   = 0.00048


forces force write:
    sum of forces:
        pressure : (0 0 0)
        viscous  : (1.01248e-12 -0.0100728 5.98893e-23)
        porous   : (0 0 0)
    sum of moments:
        pressure : (0 0 0)
        viscous  : (9.35861e-25 -1.1622e-24 -3.12817e-13)
        porous   : (0 0 0)

surfaceFieldValue pInlet write:
    average(inlet) of p = 0

Time = 1

smoothSolver:  Solving for Ux, Initial residual = 1, Final residual = 0.0330413, No Iterations 1
smoothSolver:  Solving for Uy, Initial residual = 1, Final residual = 0.023694, No Iterations 1
GAMG:  Solving for p, Initial residual = 1, Final residual = 0.00919711, No Iterations 68
time step continuity errors : sum local = 0.0716323, global = -0.0161262, cumulative = -0.0161262
smoothSolver:  Solving for epsilon, Initial residual = 0.0965116, Final residual = 0.00445214, No Iterations 1
smoothSolver:  Solving for k, Initial residual = 1, Final residual = 0.0549366, No Iterations 1
ExecutionTime = 0.24 s  ClockTime = 0 s

Time = 2

smoothSolver:  Solving for Ux, Initial residual = 0.31992, Final residual = 0.0316614, No Iterations 1
smoothSolver:  Solving for Uy, Initial residual = 0.352124, Final residual = 0.0318879, No Iterations 1
GAMG:  Solving for p, Initial residual = 0.183384, Final residual = 0.00178047, No Iterations 36
time step continuity errors : sum local = 0.380359, global = -0.0719285, cumulative = -0.0880547
smoothSolver:  Solving for epsilon, Initial residual = 0.108169, Final residual = 0.00602368, No Iterations 1
smoothSolver:  Solving for k, Initial residual = 0.412533, Final residual = 0.031836, No Iterations 1
ExecutionTime = 0.32 s  ClockTime = 0 s

Time = 3

smoothSolver:  Solving for Ux, Initial residual = 0.203696, Final residual = 0.0199787, No Iterations 1
smoothSolver:  Solving for Uy, Initial residual = 0.238303, Final residual = 0.0218301, No Iterations 1
GAMG:  Solving for p, Initial residual = 0.112821, Final residual = 0.000860378, No Iterations 12
time step continuity errors : sum local = 0.222259, global = 0.0125384, cumulative = -0.0755163
smoothSolver:  Solving for epsilon, Initial residual = 0.122078, Final residual = 0.0109287, No Iterations 1
smoothSolver:  Solving for k, Initial residual = 0.215274, Final residual = 0.0212183, No Iterations 1
ExecutionTime = 0.36 s  ClockTime = 0 s

Time = 4

smoothSolver:  Solving for Ux, Initial residual = 0.13011, Final residual = 0.0126108, No Iterations 1
smoothSolver:  Solving for Uy, Initial residual = 0.165648, Final residual = 0.015136, No Iterations 1
GAMG:  Solving for p, Initial residual = 0.0798632, Final residual = 0.000778317, No Iterations 44
time step continuity errors : sum local = 0.19389, global = 0.036257, cumulative = -0.0392593
smoothSolver:  Solving for epsilon, Initial residual = 0.0573027, Final residual = 0.00464854, No Iterations 1
smoothSolver:  Solving for k, Initial residual = 0.112182, Final residual = 0.00999008, No Iterations 1
ExecutionTime = 0.45 s  ClockTime = 0 s

Time = 5

smoothSolver:  Solving for Ux, Initial residual = 0.0945201, Final residual = 0.00929122, No Iterations 1
smoothSolver:  Solving for Uy, Initial residual = 0.103566, Final residual = 0.0095301, No Iterations 1
GAMG:  Solving for p, Initial residual = 0.0767859, Final residual = 0.000756838, No Iterations 58
time step continuity errors : sum local = 0.137543, global = 0.0276045, cumulative = -0.0116548
smoothSolver:  Solving for epsilon, Initial residual = 0.0339644, Final residual = 0.0026699, No Iterations 1
smoothSolver:  Solving for k, Initial residual = 0.0827075, Final residual = 0.00678596, No Iterations 1
ExecutionTime = 0.55 s  ClockTime = 0 s

Time = 6

smoothSolver:  Solving for Ux, Initial residual = 0.0675502, Final residual = 0.000689134, No Iterations 2
smoothSolver:  Solving for Uy, Initial residual = 0.0500013, Final residual = 0.00473433, No Iterations 1
GAMG:  Solving for p, Initial residual = 0.1644, Final residual = 0.0015026, No Iterations 56
time step continuity errors : sum local = 0.135308, global = 0.026501, cumulative = 0.0148462
smoothSolver:  Solving for epsilon, Initial residual = 0.0220132, Final residual = 0.00169447, No Iterations 1
smoothSolver:  Solving for k, Initial residual = 0.0651491, Final residual = 0.00548971, No Iterations 1
ExecutionTime = 0.66 s  ClockTime = 0 s

Time = 7

smoothSolver:  Solving for Ux, Initial residual = 0.0493495, Final residual = 0.000513702, No Iterations 2
smoothSolver:  Solving for Uy, Initial residual = 0.0242705, Final residual = 0.00235942, No Iterations 1
GAMG:  Solving for p, Initial residual = 0.380937, Final residual = 0.00372225, No Iterations 40
time step continuity errors : sum local = 0.18641, global = 0.0331875, cumulative = 0.0480338
smoothSolver:  Solving for epsilon, Initial residual = 0.0155723, Final residual = 0.00116011, No Iterations 1
smoothSolver:  Solving for k, Initial residual = 0.0523297, Final residual = 0.00436298, No Iterations 1
ExecutionTime = 0.74 s  ClockTime = 0 s

Time = 8

smoothSolver:  Solving for Ux, Initial residual = 0.0509331, Final residual = 0.00508305, No Iterations 1
smoothSolver:  Solving for Uy, Initial residual = 0.0511088, Final residual = 0.00468879, No Iterations 1
GAMG:  Solving for p, Initial residual = 0.212411, Final residual = 0.00206784, No Iterations 26
time step continuity errors : sum local = 0.196078, global = 0.032833, cumulative = 0.0808668
smoothSolver:  Solving for epsilon, Initial residual = 0.0121024, Final residual = 0.000851291, No Iterations 1
smoothSolver:  Solving for k, Initial residual = 0.0417293, Final residual = 0.00350958, No Iterations 1
ExecutionTime = 0.8 s  ClockTime = 1 s

Time = 9

smoothSolver:  Solving for Ux, Initial residual = 0.0534808, Final residual = 0.005274, No Iterations 1
smoothSolver:  Solving for Uy, Initial residual = 0.0609521, Final residual = 0.00550634, No Iterations 1
GAMG:  Solving for p, Initial residual = 0.171136, Final residual = 0.00161226, No Iterations 20
time step continuity errors : sum local = 0.17157, global = -0.0298058, cumulative = 0.0510609
smoothSolver:  Solving for epsilon, Initial residual = 0.0103754, Final residual = 0.000676861, No Iterations 1
smoothSolver:  Solving for k, Initial residual = 0.0336904, Final residual = 0.0028305, No Iterations 1
ExecutionTime = 0.86 s  ClockTime = 1 s

Time = 10

smoothSolver:  Solving for Ux, Initial residual = 0.0540713, Final residual = 0.00536924, No Iterations 1
smoothSolver:  Solving for Uy, Initial residual = 0.0567345, Final residual = 0.00512419, No Iterations 1
GAMG:  Solving for p, Initial residual = 0.158324, Final residual = 0.00148354, No Iterations 36
time step continuity errors : sum local = 0.139806, global = -0.0240014, cumulative = 0.0270596
smoothSolver:  Solving for epsilon, Initial residual = 0.00945495, Final residual = 0.000577367, No Iterations 1
smoothSolver:  Solving for k, Initial residual = 0.0278958, Final residual = 0.00231981, No Iterations 1
ExecutionTime = 0.94 s  ClockTime = 1 s

Time = 11

smoothSolver:  Solving for Ux, Initial residual = 0.0475569, Final residual = 0.000487764, No Iterations 2
smoothSolver:  Solving for Uy, Initial residual = 0.0411719, Final residual = 0.00381227, No Iterations 1
GAMG:  Solving for p, Initial residual = 0.191633, Final residual = 0.00189527, No Iterations 44
time step continuity errors : sum local = 0.123191, global = -0.0221155, cumulative = 0.00494407
smoothSolver:  Solving for epsilon, Initial residual = 0.00900465, Final residual = 0.00052656, No Iterations 1
smoothSolver:  Solving for k, Initial residual = 0.0237287, Final residual = 0.00192675, No Iterations 1
ExecutionTime = 1.03 s  ClockTime = 1 s

Time = 12

smoothSolver:  Solving for Ux, Initial residual = 0.0397329, Final residual = 0.00041112, No Iterations 2
smoothSolver:  Solving for Uy, Initial residual = 0.0222588, Final residual = 0.0021944, No Iterations 1
GAMG:  Solving for p, Initial residual = 0.340862, Final residual = 0.00333443, No Iterations 42
time step continuity errors : sum local = 0.107641, global = -0.0188159, cumulative = -0.0138718
smoothSolver:  Solving for epsilon, Initial residual = 0.00847558, Final residual = 0.000463606, No Iterations 1
smoothSolver:  Solving for k, Initial residual = 0.0208004, Final residual = 0.0016302, No Iterations 1
ExecutionTime = 1.12 s  ClockTime = 1 s

Time = 13

smoothSolver:  Solving for Ux, Initial residual = 0.0338509, Final residual = 0.00337993, No Iterations 1
smoothSolver:  Solving for Uy, Initial residual = 0.0257553, Final residual = 0.00250781, No Iterations 1
GAMG:  Solving for p, Initial residual = 0.242464, Final residual = 0.00241336, No Iterations 32
time step continuity errors : sum local = 0.0946502, global = -0.0152331, cumulative = -0.0291049
smoothSolver:  Solving for epsilon, Initial residual = 0.00819641, Final residual = 0.000419516, No Iterations 1
smoothSolver:  Solving for k, Initial residual = 0.0190463, Final residual = 0.0014465, No Iterations 1
ExecutionTime = 1.2 s  ClockTime = 1 s

Time = 14

smoothSolver:  Solving for Ux, Initial residual = 0.0304558, Final residual = 0.00301329, No Iterations 1
smoothSolver:  Solving for Uy, Initial residual = 0.0335496, Final residual = 0.00316502, No Iterations 1
GAMG:  Solving for p, Initial residual = 0.160902, Final residual = 0.00154372, No Iterations 18
time step continuity errors : sum local = 0.0791842, global = -0.00965242, cumulative = -0.0387573
smoothSolver:  Solving for epsilon, Initial residual = 0.0078034, Final residual = 0.000389822, No Iterations 1
smoothSolver:  Solving for k, Initial residual = 0.0179015, Final residual = 0.00133459, No Iterations 1
ExecutionTime = 1.25 s  ClockTime = 1 s

Time = 15

smoothSolver:  Solving for Ux, Initial residual = 0.0278748, Final residual = 0.00275674, No Iterations 1
smoothSolver:  Solving for Uy, Initial residual = 0.0318628, Final residual = 0.00297241, No Iterations 1
GAMG:  Solving for p, Initial residual = 0.140869, Final residual = 0.00130327, No Iterations 28
time step continuity errors : sum local = 0.0677012, global = 0.0126773, cumulative = -0.02608
smoothSolver:  Solving for epsilon, Initial residual = 0.00768283, Final residual = 0.000374717, No Iterations 1
smoothSolver:  Solving for k, Initial residual = 0.0172859, Final residual = 0.0012687, No Iterations 1
ExecutionTime = 1.31 s  ClockTime = 1 s

Time = 16

smoothSolver:  Solving for Ux, Initial residual = 0.0239419, Final residual = 0.00237105, No Iterations 1
smoothSolver:  Solving for Uy, Initial residual = 0.0245806, Final residual = 0.00228403, No Iterations 1
GAMG:  Solving for p, Initial residual = 0.15441, Final residual = 0.00151977, No Iterations 36
time step continuity errors : sum local = 0.0682067, global = 0.0126987, cumulative = -0.0133813
smoothSolver:  Solving for epsilon, Initial residual = 0.00780161, Final residual = 0.000368201, No Iterations 1
smoothSolver:  Solving for k, Initial residual = 0.0167136, Final residual = 0.00121805, No Iterations 1
ExecutionTime = 1.36 s  ClockTime = 1 s

Time = 17

smoothSolver:  Solving for Ux, Initial residual = 0.0191253, Final residual = 0.00189218, No Iterations 1
smoothSolver:  Solving for Uy, Initial residual = 0.0149461, Final residual = 0.00140151, No Iterations 1
GAMG:  Solving for p, Initial residual = 0.213646, Final residual = 0.00203502, No Iterations 36
time step continuity errors : sum local = 0.0665329, global = 0.0118034, cumulative = -0.00157788
smoothSolver:  Solving for epsilon, Initial residual = 0.00780661, Final residual = 0.000367401, No Iterations 1
smoothSolver:  Solving for k, Initial residual = 0.0161984, Final residual = 0.0011681, No Iterations 1
ExecutionTime = 1.44 s  ClockTime = 1 s

Time = 18

smoothSolver:  Solving for Ux, Initial residual = 0.0156406, Final residual = 0.00153246, No Iterations 1
smoothSolver:  Solving for Uy, Initial residual = 0.00859954, Final residual = 0.000823683, No Iterations 1
GAMG:  Solving for p, Initial residual = 0.359291, Final residual = 0.0033903, No Iterations 30
time step continuity errors : sum local = 0.0695653, global = 0.0111704, cumulative = 0.00959256
smoothSolver:  Solving for epsilon, Initial residual = 0.00753649, Final residual = 0.000373345, No Iterations 1
smoothSolver:  Solving for k, Initial residual = 0.0156009, Final residual = 0.00112305, No Iterations 1
ExecutionTime = 1.51 s  ClockTime = 1 s

Time = 19

smoothSolver:  Solving for Ux, Initial residual = 0.0150622, Final residual = 0.00147357, No Iterations 1
smoothSolver:  Solving for Uy, Initial residual = 0.0101824, Final residual = 0.000974824, No Iterations 1
GAMG:  Solving for p, Initial residual = 0.346491, Final residual = 0.00307404, No Iterations 24
time step continuity errors : sum local = 0.0644221, global = 0.00942583, cumulative = 0.0190184
smoothSolver:  Solving for epsilon, Initial residual = 0.00752775, Final residual = 0.000382157, No Iterations 1
smoothSolver:  Solving for k, Initial residual = 0.0150975, Final residual = 0.00108157, No Iterations 1
ExecutionTime = 1.58 s  ClockTime = 1 s

Time = 20

smoothSolver:  Solving for Ux, Initial residual = 0.014991, Final residual = 0.00147935, No Iterations 1
smoothSolver:  Solving for Uy, Initial residual = 0.0131937, Final residual = 0.00125313, No Iterations 1
GAMG:  Solving for p, Initial residual = 0.261306, Final residual = 0.00213149, No Iterations 13
time step continuity errors : sum local = 0.0525021, global = 0.0052955, cumulative = 0.0243139
smoothSolver:  Solving for epsilon, Initial residual = 0.00777442, Final residual = 0.000381763, No Iterations 1
smoothSolver:  Solving for k, Initial residual = 0.0146315, Final residual = 0.00104416, No Iterations 1
ExecutionTime = 1.62 s  ClockTime = 1 s

Time = 21

smoothSolver:  Solving for Ux, Initial residual = 0.01436, Final residual = 0.0014243, No Iterations 1
smoothSolver:  Solving for Uy, Initial residual = 0.0134389, Final residual = 0.00128427, No Iterations 1
GAMG:  Solving for p, Initial residual = 0.220306, Final residual = 0.00192514, No Iterations 17
time step continuity errors : sum local = 0.0477332, global = -0.00905198, cumulative = 0.0152619
smoothSolver:  Solving for epsilon, Initial residual = 0.00774306, Final residual = 0.00038639, No Iterations 1
smoothSolver:  Solving for k, Initial residual = 0.0142597, Final residual = 0.001015, No Iterations 1
ExecutionTime = 1.67 s  ClockTime = 1 s

Time = 22

smoothSolver:  Solving for Ux, Initial residual = 0.0132547, Final residual = 0.00131658, No Iterations 1
smoothSolver:  Solving for Uy, Initial residual = 0.0115911, Final residual = 0.00112074, No Iterations 1
GAMG:  Solving for p, Initial residual = 0.198577, Final residual = 0.00188596, No Iterations 22
time step continuity errors : sum local = 0.0429009, global = -0.00712237, cumulative = 0.00813954
smoothSolver:  Solving for epsilon, Initial residual = 0.00762998, Final residual = 0.000388189, No Iterations 1
smoothSolver:  Solving for k, Initial residual = 0.0139287, Final residual = 0.000991979, No Iterations 1
ExecutionTime = 1.73 s  ClockTime = 1 s

Time = 23

smoothSolver:  Solving for Ux, Initial residual = 0.0121512, Final residual = 0.00120123, No Iterations 1
smoothSolver:  Solving for Uy, Initial residual = 0.00847459, Final residual = 0.000838502, No Iterations 1
GAMG:  Solving for p, Initial residual = 0.203256, Final residual = 0.00192112, No Iterations 26
time step continuity errors : sum local = 0.0355063, global = -0.00505203, cumulative = 0.00308751
smoothSolver:  Solving for epsilon, Initial residual = 0.00758773, Final residual = 0.000390913, No Iterations 1
smoothSolver:  Solving for k, Initial residual = 0.0136393, Final residual = 0.00097274, No Iterations 1
ExecutionTime = 1.79 s  ClockTime = 2 s

Time = 24

smoothSolver:  Solving for Ux, Initial residual = 0.0110612, Final residual = 0.00108482, No Iterations 1
smoothSolver:  Solving for Uy, Initial residual = 0.00706872, Final residual = 0.000698136, No Iterations 1
GAMG:  Solving for p, Initial residual = 0.224314, Final residual = 0.00216022, No Iterations 24
time step continuity errors : sum local = 0.0311298, global = -0.0040331, cumulative = -0.000945597
smoothSolver:  Solving for epsilon, Initial residual = 0.00791127, Final residual = 0.000399006, No Iterations 1
smoothSolver:  Solving for k, Initial residual = 0.013351, Final residual = 0.000948351, No Iterations 1
ExecutionTime = 1.86 s  ClockTime = 2 s

Time = 25

smoothSolver:  Solving for Ux, Initial residual = 0.00994517, Final residual = 0.000964378, No Iterations 1
smoothSolver:  Solving for Uy, Initial residual = 0.00726923, Final residual = 0.000701391, No Iterations 1
GAMG:  Solving for p, Initial residual = 0.197885, Final residual = 0.00186385, No Iterations 25
time step continuity errors : sum local = 0.0317477, global = -0.00432156, cumulative = -0.00526715
smoothSolver:  Solving for epsilon, Initial residual = 0.0080612, Final residual = 0.000405557, No Iterations 1
smoothSolver:  Solving for k, Initial residual = 0.0129959, Final residual = 0.000920917, No Iterations 1
ExecutionTime = 1.92 s  ClockTime = 2 s

Time = 26

smoothSolver:  Solving for Ux, Initial residual = 0.0091667, Final residual = 0.000880292, No Iterations 1
smoothSolver:  Solving for Uy, Initial residual = 0.00730966, Final residual = 0.00069221, No Iterations 1
GAMG:  Solving for p, Initial residual = 0.189543, Final residual = 0.00163971, No Iterations 17
time step continuity errors : sum local = 0.0296368, global = -0.00222812, cumulative = -0.00749527
smoothSolver:  Solving for epsilon, Initial residual = 0.0079399, Final residual = 0.00040346, No Iterations 1
smoothSolver:  Solving for k, Initial residual = 0.0125811, Final residual = 0.000886522, No Iterations 1
ExecutionTime = 1.98 s  ClockTime = 2 s

Time = 27

smoothSolver:  Solving for Ux, Initial residual = 0.00906433, Final residual = 0.000870916, No Iterations 1
smoothSolver:  Solving for Uy, Initial residual = 0.00677529, Final residual = 0.000632839, No Iterations 1
GAMG:  Solving for p, Initial residual = 0.184739, Final residual = 0.00178021, No Iterations 20
time step continuity errors : sum local = 0.0322997, global = 0.00819491, cumulative = 0.000699639
smoothSolver:  Solving for epsilon, Initial residual = 0.0077143, Final residual = 0.000398391, No Iterations 1
smoothSolver:  Solving for k, Initial residual = 0.0121301, Final residual = 0.000846802, No Iterations 1
ExecutionTime = 2.04 s  ClockTime = 2 s

Time = 28

smoothSolver:  Solving for Ux, Initial residual = 0.00930233, Final residual = 0.000901223, No Iterations 1
smoothSolver:  Solving for Uy, Initial residual = 0.00614373, Final residual = 0.000571034, No Iterations 1
GAMG:  Solving for p, Initial residual = 0.177956, Final residual = 0.00165781, No Iterations 24
time step continuity errors : sum local = 0.0291277, global = 0.00623241, cumulative = 0.00693205
smoothSolver:  Solving for epsilon, Initial residual = 0.00746549, Final residual = 0.000389669, No Iterations 1
smoothSolver:  Solving for k, Initial residual = 0.0116324, Final residual = 0.000805519, No Iterations 1
ExecutionTime = 2.09 s  ClockTime = 2 s

Time = 29

smoothSolver:  Solving for Ux, Initial residual = 0.00931416, Final residual = 0.000907663, No Iterations 1
smoothSolver:  Solving for Uy, Initial residual = 0.00550473, Final residual = 0.000519271, No Iterations 1
GAMG:  Solving for p, Initial residual = 0.172417, Final residual = 0.00170694, No Iterations 24
time step continuity errors : sum local = 0.0277504, global = 0.00471764, cumulative = 0.0116497
smoothSolver:  Solving for epsilon, Initial residual = 0.00712921, Final residual = 0.000375666, No Iterations 1
smoothSolver:  Solving for k, Initial residual = 0.0111585, Final residual = 0.000762903, No Iterations 1
ExecutionTime = 2.16 s  ClockTime = 2 s

Time = 30

smoothSolver:  Solving for Ux, Initial residual = 0.00905868, Final residual = 0.000884135, No Iterations 1
smoothSolver:  Solving for Uy, Initial residual = 0.00493562, Final residual = 0.000473236, No Iterations 1
GAMG:  Solving for p, Initial residual = 0.165256, Final residual = 0.00153683, No Iterations 24
time step continuity errors : sum local = 0.0225909, global = 0.00329089, cumulative = 0.0149406
smoothSolver:  Solving for epsilon, Initial residual = 0.00689864, Final residual = 0.000360672, No Iterations 1
smoothSolver:  Solving for k, Initial residual = 0.0107027, Final residual = 0.000726718, No Iterations 1
ExecutionTime = 2.23 s  ClockTime = 2 s

Time = 31

smoothSolver:  Solving for Ux, Initial residual = 0.00860938, Final residual = 0.000839066, No Iterations 1
smoothSolver:  Solving for Uy, Initial residual = 0.00461832, Final residual = 0.000446887, No Iterations 1
GAMG:  Solving for p, Initial residual = 0.154602, Final residual = 0.00144282, No Iterations 24
time step continuity errors : sum local = 0.0190567, global = 0.00265208, cumulative = 0.0175927
smoothSolver:  Solving for epsilon, Initial residual = 0.0066098, Final residual = 0.000344343, No Iterations 1
smoothSolver:  Solving for k, Initial residual = 0.0103309, Final residual = 0.000694514, No Iterations 1
ExecutionTime = 2.3 s  ClockTime = 2 s

Time = 32

smoothSolver:  Solving for Ux, Initial residual = 0.00812431, Final residual = 0.000790179, No Iterations 1
smoothSolver:  Solving for Uy, Initial residual = 0.00448522, Final residual = 0.000434828, No Iterations 1
GAMG:  Solving for p, Initial residual = 0.138629, Final residual = 0.00128689, No Iterations 21
time step continuity errors : sum local = 0.0154938, global = 0.00204993, cumulative = 0.0196426
smoothSolver:  Solving for epsilon, Initial residual = 0.00640585, Final residual = 0.00033366, No Iterations 1
smoothSolver:  Solving for k, Initial residual = 0.0100016, Final residual = 0.000665495, No Iterations 1
ExecutionTime = 2.36 s  ClockTime = 2 s

Time = 33

smoothSolver:  Solving for Ux, Initial residual = 0.00771386, Final residual = 0.000749582, No Iterations 1
smoothSolver:  Solving for Uy, Initial residual = 0.00439442, Final residual = 0.000425113, No Iterations 1
GAMG:  Solving for p, Initial residual = 0.132827, Final residual = 0.00132549, No Iterations 17
time step continuity errors : sum local = 0.0149974, global = 0.00242456, cumulative = 0.0220672
smoothSolver:  Solving for epsilon, Initial residual = 0.00621804, Final residual = 0.000319403, No Iterations 1
smoothSolver:  Solving for k, Initial residual = 0.00971598, Final residual = 0.000642387, No Iterations 1
ExecutionTime = 2.42 s  ClockTime = 2 s

Time = 34

smoothSolver:  Solving for Ux, Initial residual = 0.00742253, Final residual = 0.000719864, No Iterations 1
smoothSolver:  Solving for Uy, Initial residual = 0.00427165, Final residual = 0.000411154, No Iterations 1
GAMG:  Solving for p, Initial residual = 0.13978, Final residual = 0.00130925, No Iterations 19
time step continuity errors : sum local = 0.014338, global = -0.00372317, cumulative = 0.018344
smoothSolver:  Solving for epsilon, Initial residual = 0.00602818, Final residual = 0.000307891, No Iterations 1
smoothSolver:  Solving for k, Initial residual = 0.00948779, Final residual = 0.000623566, No Iterations 1
ExecutionTime = 2.48 s  ClockTime = 2 s

Time = 35

smoothSolver:  Solving for Ux, Initial residual = 0.00711093, Final residual = 0.00068789, No Iterations 1
smoothSolver:  Solving for Uy, Initial residual = 0.00411967, Final residual = 0.000393819, No Iterations 1
GAMG:  Solving for p, Initial residual = 0.148318, Final residual = 0.00135092, No Iterations 21
time step continuity errors : sum local = 0.0146388, global = -0.00326789, cumulative = 0.0150761
smoothSolver:  Solving for epsilon, Initial residual = 0.0058965, Final residual = 0.000304105, No Iterations 1
smoothSolver:  Solving for k, Initial residual = 0.00928022, Final residual = 0.000608267, No Iterations 1
ExecutionTime = 2.54 s  ClockTime = 2 s

Time = 36

smoothSolver:  Solving for Ux, Initial residual = 0.00673161, Final residual = 0.000648696, No Iterations 1
smoothSolver:  Solving for Uy, Initial residual = 0.00394452, Final residual = 0.00037515, No Iterations 1
GAMG:  Solving for p, Initial residual = 0.150191, Final residual = 0.00142605, No Iterations 21
time step continuity errors : sum local = 0.0156723, global = -0.00303317, cumulative = 0.0120429
smoothSolver:  Solving for epsilon, Initial residual = 0.00577127, Final residual = 0.000297224, No Iterations 1
smoothSolver:  Solving for k, Initial residual = 0.00909016, Final residual = 0.000593345, No Iterations 1
ExecutionTime = 2.6 s  ClockTime = 2 s

Time = 37

smoothSolver:  Solving for Ux, Initial residual = 0.00632511, Final residual = 0.000606894, No Iterations 1
smoothSolver:  Solving for Uy, Initial residual = 0.00390487, Final residual = 0.000371914, No Iterations 1
GAMG:  Solving for p, Initial residual = 0.142672, Final residual = 0.00139671, No Iterations 19
time step continuity errors : sum local = 0.0157684, global = -0.00277349, cumulative = 0.00926943
smoothSolver:  Solving for epsilon, Initial residual = 0.00564269, Final residual = 0.000291537, No Iterations 1
smoothSolver:  Solving for k, Initial residual = 0.00893254, Final residual = 0.000582554, No Iterations 1
ExecutionTime = 2.66 s  ClockTime = 2 s

Time = 38

smoothSolver:  Solving for Ux, Initial residual = 0.00598567, Final residual = 0.00057354, No Iterations 1
smoothSolver:  Solving for Uy, Initial residual = 0.00398903, Final residual = 0.000382122, No Iterations 1
GAMG:  Solving for p, Initial residual = 0.128841, Final residual = 0.00118724, No Iterations 15
time step continuity errors : sum local = 0.0137627, global = -0.00149451, cumulative = 0.00777493
smoothSolver:  Solving for epsilon, Initial residual = 0.00555308, Final residual = 0.000287549, No Iterations 1
smoothSolver:  Solving for k, Initial residual = 0.00876978, Final residual = 0.000570949, No Iterations 1
ExecutionTime = 2.72 s  ClockTime = 2 s

Time = 39

smoothSolver:  Solving for Ux, Initial residual = 0.00580926, Final residual = 0.000557268, No Iterations 1
smoothSolver:  Solving for Uy, Initial residual = 0.00405871, Final residual = 0.000389992, No Iterations 1
GAMG:  Solving for p, Initial residual = 0.112279, Final residual = 0.00101093, No Iterations 14
time step continuity errors : sum local = 0.0119568, global = -0.00113202, cumulative = 0.0066429
smoothSolver:  Solving for epsilon, Initial residual = 0.00541665, Final residual = 0.000282453, No Iterations 1
smoothSolver:  Solving for k, Initial residual = 0.00860645, Final residual = 0.000558502, No Iterations 1
ExecutionTime = 2.77 s  ClockTime = 2 s

Time = 40

smoothSolver:  Solving for Ux, Initial residual = 0.00569319, Final residual = 0.000545987, No Iterations 1
smoothSolver:  Solving for Uy, Initial residual = 0.00406635, Final residual = 0.000391, No Iterations 1
GAMG:  Solving for p, Initial residual = 0.0959641, Final residual = 0.000895889, No Iterations 9
time step continuity errors : sum local = 0.0106783, global = 0.00201756, cumulative = 0.00866047
smoothSolver:  Solving for epsilon, Initial residual = 0.00529467, Final residual = 0.000278385, No Iterations 1
smoothSolver:  Solving for k, Initial residual = 0.00846034, Final residual = 0.000548599, No Iterations 1
ExecutionTime = 2.8 s  ClockTime = 3 s

Time = 41

smoothSolver:  Solving for Ux, Initial residual = 0.0055983, Final residual = 0.000536977, No Iterations 1
smoothSolver:  Solving for Uy, Initial residual = 0.00399544, Final residual = 0.000383694, No Iterations 1
GAMG:  Solving for p, Initial residual = 0.0828362, Final residual = 0.000779498, No Iterations 9
time step continuity errors : sum local = 0.0092517, global = 0.00135504, cumulative = 0.0100155
smoothSolver:  Solving for epsilon, Initial residual = 0.0051834, Final residual = 0.000272478, No Iterations 1
smoothSolver:  Solving for k, Initial residual = 0.00830457, Final residual = 0.00053698, No Iterations 1
ExecutionTime = 2.86 s  ClockTime = 3 s

Time = 42

smoothSolver:  Solving for Ux, Initial residual = 0.00553489, Final residual = 0.00053032, No Iterations 1
smoothSolver:  Solving for Uy, Initial residual = 0.00387057, Final residual = 0.000370785, No Iterations 1
GAMG:  Solving for p, Initial residual = 0.0737109, Final residual = 0.000726175, No Iterations 13
time step continuity errors : sum local = 0.00853929, global = 0.00105636, cumulative = 0.0110719
smoothSolver:  Solving for epsilon, Initial residual = 0.00507752, Final residual = 0.000267867, No Iterations 1
smoothSolver:  Solving for k, Initial residual = 0.00814325, Final residual = 0.000524072, No Iterations 1
ExecutionTime = 2.9 s  ClockTime = 3 s

Time = 43

smoothSolver:  Solving for Ux, Initial residual = 0.00548585, Final residual = 0.000525164, No Iterations 1
smoothSolver:  Solving for Uy, Initial residual = 0.00369289, Final residual = 0.000352847, No Iterations 1
GAMG:  Solving for p, Initial residual = 0.0708036, Final residual = 0.000643659, No Iterations 19
time step continuity errors : sum local = 0.0074496, global = 0.00112574, cumulative = 0.0121976
smoothSolver:  Solving for epsilon, Initial residual = 0.0049862, Final residual = 0.000263217, No Iterations 1
smoothSolver:  Solving for k, Initial residual = 0.00798635, Final residual = 0.000512081, No Iterations 1
ExecutionTime = 2.95 s  ClockTime = 3 s

Time = 44

smoothSolver:  Solving for Ux, Initial residual = 0.00542619, Final residual = 0.000519736, No Iterations 1
smoothSolver:  Solving for Uy, Initial residual = 0.00348881, Final residual = 0.000332158, No Iterations 1
GAMG:  Solving for p, Initial residual = 0.0717718, Final residual = 0.000665691, No Iterations 19
time step continuity errors : sum local = 0.00756559, global = 0.00109092, cumulative = 0.0132885
smoothSolver:  Solving for epsilon, Initial residual = 0.00488523, Final residual = 0.000258432, No Iterations 1
smoothSolver:  Solving for k, Initial residual = 0.00783051, Final residual = 0.000499653, No Iterations 1
ExecutionTime = 3.01 s  ClockTime = 3 s

Time = 45

smoothSolver:  Solving for Ux, Initial residual = 0.00535661, Final residual = 0.00051391, No Iterations 1
smoothSolver:  Solving for Uy, Initial residual = 0.00331561, Final residual = 0.00031392, No Iterations 1
GAMG:  Solving for p, Initial residual = 0.073152, Final residual = 0.000711826, No Iterations 16
time step continuity errors : sum local = 0.0079625, global = 0.0010084, cumulative = 0.0142969
smoothSolver:  Solving for epsilon, Initial residual = 0.00477201, Final residual = 0.000253622, No Iterations 1
smoothSolver:  Solving for k, Initial residual = 0.00767625, Final residual = 0.000486911, No Iterations 1
ExecutionTime = 3.07 s  ClockTime = 3 s

Time = 46

smoothSolver:  Solving for Ux, Initial residual = 0.00528679, Final residual = 0.000508192, No Iterations 1
smoothSolver:  Solving for Uy, Initial residual = 0.00324554, Final residual = 0.000306926, No Iterations 1
GAMG:  Solving for p, Initial residual = 0.0722131, Final residual = 0.00067406, No Iterations 16
time step continuity errors : sum local = 0.0074664, global = 0.000821303, cumulative = 0.0151182
smoothSolver:  Solving for epsilon, Initial residual = 0.00466859, Final residual = 0.000248464, No Iterations 1
smoothSolver:  Solving for k, Initial residual = 0.0075183, Final residual = 0.00047436, No Iterations 1
ExecutionTime = 3.13 s  ClockTime = 3 s

Time = 47

smoothSolver:  Solving for Ux, Initial residual = 0.00522107, Final residual = 0.000502832, No Iterations 1
smoothSolver:  Solving for Uy, Initial residual = 0.00324628, Final residual = 0.000307838, No Iterations 1
GAMG:  Solving for p, Initial residual = 0.0686373, Final residual = 0.000622716, No Iterations 12
time step continuity errors : sum local = 0.00687347, global = 0.000798548, cumulative = 0.0159168
smoothSolver:  Solving for epsilon, Initial residual = 0.00455683, Final residual = 0.000241594, No Iterations 1
smoothSolver:  Solving for k, Initial residual = 0.00736276, Final residual = 0.000461813, No Iterations 1
ExecutionTime = 3.18 s  ClockTime = 3 s

Time = 48

smoothSolver:  Solving for Ux, Initial residual = 0.00515531, Final residual = 0.00049731, No Iterations 1
smoothSolver:  Solving for Uy, Initial residual = 0.00326439, Final residual = 0.000310294, No Iterations 1
GAMG:  Solving for p, Initial residual = 0.0626739, Final residual = 0.000530438, No Iterations 10
time step continuity errors : sum local = 0.00586381, global = 0.00104686, cumulative = 0.0169636
smoothSolver:  Solving for epsilon, Initial residual = 0.00445784, Final residual = 0.000236281, No Iterations 1
smoothSolver:  Solving for k, Initial residual = 0.00720759, Final residual = 0.000449771, No Iterations 1
ExecutionTime = 3.23 s  ClockTime = 3 s

Time = 49

smoothSolver:  Solving for Ux, Initial residual = 0.00507314, Final residual = 0.000489947, No Iterations 1
smoothSolver:  Solving for Uy, Initial residual = 0.00326788, Final residual = 0.000311065, No Iterations 1
GAMG:  Solving for p, Initial residual = 0.0558059, Final residual = 0.000538895, No Iterations 8
time step continuity errors : sum local = 0.005965, global = 0.00136564, cumulative = 0.0183293
smoothSolver:  Solving for epsilon, Initial residual = 0.00434761, Final residual = 0.000230467, No Iterations 1
smoothSolver:  Solving for k, Initial residual = 0.00706636, Final residual = 0.00043982, No Iterations 1
ExecutionTime = 3.27 s  ClockTime = 3 s

Time = 50

smoothSolver:  Solving for Ux, Initial residual = 0.00496407, Final residual = 0.000479737, No Iterations 1
smoothSolver:  Solving for Uy, Initial residual = 0.00324542, Final residual = 0.000309106, No Iterations 1
GAMG:  Solving for p, Initial residual = 0.0493343, Final residual = 0.000443792, No Iterations 12
time step continuity errors : sum local = 0.00490821, global = 0.0012448, cumulative = 0.0195741
smoothSolver:  Solving for epsilon, Initial residual = 0.00426002, Final residual = 0.00022513, No Iterations 1
smoothSolver:  Solving for k, Initial residual = 0.00694323, Final residual = 0.000431365, No Iterations 1
ExecutionTime = 3.32 s  ClockTime = 3 s

Time = 51

smoothSolver:  Solving for Ux, Initial residual = 0.00483381, Final residual = 0.00046696, No Iterations 1
smoothSolver:  Solving for Uy, Initial residual = 0.00320518, Final residual = 0.000305201, No Iterations 1
GAMG:  Solving for p, Initial residual = 0.0437834, Final residual = 0.000397924, No Iterations 17
time step continuity errors : sum local = 0.00438898, global = -0.000936688, cumulative = 0.0186374
smoothSolver:  Solving for epsilon, Initial residual = 0.00417309, Final residual = 0.00021937, No Iterations 1
smoothSolver:  Solving for k, Initial residual = 0.00682243, Final residual = 0.000421637, No Iterations 1
ExecutionTime = 3.38 s  ClockTime = 3 s

Time = 52

smoothSolver:  Solving for Ux, Initial residual = 0.00469998, Final residual = 0.000453279, No Iterations 1
smoothSolver:  Solving for Uy, Initial residual = 0.00315535, Final residual = 0.00030048, No Iterations 1
GAMG:  Solving for p, Initial residual = 0.0414004, Final residual = 0.000385441, No Iterations 19
time step continuity errors : sum local = 0.0042378, global = -0.000927027, cumulative = 0.0177104
smoothSolver:  Solving for epsilon, Initial residual = 0.00410356, Final residual = 0.000215378, No Iterations 1
smoothSolver:  Solving for k, Initial residual = 0.00668949, Final residual = 0.000412279, No Iterations 1
ExecutionTime = 3.45 s  ClockTime = 3 s

Time = 53

smoothSolver:  Solving for Ux, Initial residual = 0.00457595, Final residual = 0.000440548, No Iterations 1
smoothSolver:  Solving for Uy, Initial residual = 0.00310554, Final residual = 0.000295524, No Iterations 1
GAMG:  Solving for p, Initial residual = 0.0413344, Final residual = 0.000399677, No Iterations 13
time step continuity errors : sum local = 0.00438365, global = -0.000882178, cumulative = 0.0168282
smoothSolver:  Solving for epsilon, Initial residual = 0.00403175, Final residual = 0.000211173, No Iterations 1
smoothSolver:  Solving for k, Initial residual = 0.00657587, Final residual = 0.000403625, No Iterations 1
ExecutionTime = 3.5 s  ClockTime = 3 s

Time = 54

smoothSolver:  Solving for Ux, Initial residual = 0.00447486, Final residual = 0.000430318, No Iterations 1
smoothSolver:  Solving for Uy, Initial residual = 0.00306318, Final residual = 0.000291193, No Iterations 1
GAMG:  Solving for p, Initial residual = 0.0425105, Final residual = 0.00041044, No Iterations 14
time step continuity errors : sum local = 0.0044879, global = -0.00083, cumulative = 0.0159982
smoothSolver:  Solving for epsilon, Initial residual = 0.00398027, Final residual = 0.000208083, No Iterations 1
smoothSolver:  Solving for k, Initial residual = 0.00646198, Final residual = 0.000395999, No Iterations 1
ExecutionTime = 3.55 s  ClockTime = 3 s

Time = 55

smoothSolver:  Solving for Ux, Initial residual = 0.00439855, Final residual = 0.000422597, No Iterations 1
smoothSolver:  Solving for Uy, Initial residual = 0.00303562, Final residual = 0.000288494, No Iterations 1
GAMG:  Solving for p, Initial residual = 0.0423214, Final residual = 0.00039019, No Iterations 14
time step continuity errors : sum local = 0.00424918, global = -0.00103525, cumulative = 0.0149629
smoothSolver:  Solving for epsilon, Initial residual = 0.00392428, Final residual = 0.000204043, No Iterations 1
smoothSolver:  Solving for k, Initial residual = 0.00636557, Final residual = 0.000389712, No Iterations 1
ExecutionTime = 3.6 s  ClockTime = 3 s

Time = 56

smoothSolver:  Solving for Ux, Initial residual = 0.00434082, Final residual = 0.000416952, No Iterations 1
smoothSolver:  Solving for Uy, Initial residual = 0.00303261, Final residual = 0.000288472, No Iterations 1
GAMG:  Solving for p, Initial residual = 0.0408999, Final residual = 0.000354518, No Iterations 14
time step continuity errors : sum local = 0.00384503, global = -0.00108237, cumulative = 0.0138806
smoothSolver:  Solving for epsilon, Initial residual = 0.00386428, Final residual = 0.000202143, No Iterations 1
smoothSolver:  Solving for k, Initial residual = 0.00625788, Final residual = 0.000382202, No Iterations 1
ExecutionTime = 3.65 s  ClockTime = 3 s

Time = 57

smoothSolver:  Solving for Ux, Initial residual = 0.00429752, Final residual = 0.000412914, No Iterations 1
smoothSolver:  Solving for Uy, Initial residual = 0.00302771, Final residual = 0.000288334, No Iterations 1
GAMG:  Solving for p, Initial residual = 0.0384638, Final residual = 0.000378262, No Iterations 12
time step continuity errors : sum local = 0.0040874, global = -0.00119907, cumulative = 0.0126815
smoothSolver:  Solving for epsilon, Initial residual = 0.00382237, Final residual = 0.000198944, No Iterations 1
smoothSolver:  Solving for k, Initial residual = 0.00615593, Final residual = 0.00037493, No Iterations 1
ExecutionTime = 3.7 s  ClockTime = 3 s

Time = 58

smoothSolver:  Solving for Ux, Initial residual = 0.00425823, Final residual = 0.00040942, No Iterations 1
smoothSolver:  Solving for Uy, Initial residual = 0.00301025, Final residual = 0.000286729, No Iterations 1
GAMG:  Solving for p, Initial residual = 0.0355341, Final residual = 0.000328683, No Iterations 13
time step continuity errors : sum local = 0.00353937, global = 0.000627467, cumulative = 0.013309
smoothSolver:  Solving for epsilon, Initial residual = 0.0037735, Final residual = 0.000195777, No Iterations 1
smoothSolver:  Solving for k, Initial residual = 0.00605022, Final residual = 0.000367393, No Iterations 1
ExecutionTime = 3.75 s  ClockTime = 3 s

Time = 59

smoothSolver:  Solving for Ux, Initial residual = 0.00421477, Final residual = 0.000405436, No Iterations 1
smoothSolver:  Solving for Uy, Initial residual = 0.00297988, Final residual = 0.000283714, No Iterations 1
GAMG:  Solving for p, Initial residual = 0.0325608, Final residual = 0.000290676, No Iterations 13
time step continuity errors : sum local = 0.0031215, global = 0.00037721, cumulative = 0.0136862
smoothSolver:  Solving for epsilon, Initial residual = 0.00372475, Final residual = 0.000192183, No Iterations 1
smoothSolver:  Solving for k, Initial residual = 0.00594775, Final residual = 0.000360266, No Iterations 1
ExecutionTime = 3.8 s  ClockTime = 4 s

Time = 60

smoothSolver:  Solving for Ux, Initial residual = 0.00416496, Final residual = 0.0004008, No Iterations 1
smoothSolver:  Solving for Uy, Initial residual = 0.00293851, Final residual = 0.000279559, No Iterations 1
GAMG:  Solving for p, Initial residual = 0.0298561, Final residual = 0.000284925, No Iterations 13
time step continuity errors : sum local = 0.00305344, global = 0.000242735, cumulative = 0.0139289
smoothSolver:  Solving for epsilon, Initial residual = 0.00367304, Final residual = 0.000189033, No Iterations 1
smoothSolver:  Solving for k, Initial residual = 0.00584944, Final residual = 0.000353853, No Iterations 1
ExecutionTime = 3.85 s  ClockTime = 4 s

Time = 61

smoothSolver:  Solving for Ux, Initial residual = 0.00411019, Final residual = 0.000395632, No Iterations 1
smoothSolver:  Solving for Uy, Initial residual = 0.00288999, Final residual = 0.000274719, No Iterations 1
GAMG:  Solving for p, Initial residual = 0.0279304, Final residual = 0.000245976, No Iterations 12
time step continuity errors : sum local = 0.00263202, global = 0.000174988, cumulative = 0.0141039
smoothSolver:  Solving for epsilon, Initial residual = 0.00362306, Final residual = 0.000186088, No Iterations 1
smoothSolver:  Solving for k, Initial residual = 0.00575308, Final residual = 0.000347185, No Iterations 1
ExecutionTime = 3.9 s  ClockTime = 4 s

Time = 62

smoothSolver:  Solving for Ux, Initial residual = 0.00405288, Final residual = 0.000390239, No Iterations 1
smoothSolver:  Solving for Uy, Initial residual = 0.00284228, Final residual = 0.000270076, No Iterations 1
GAMG:  Solving for p, Initial residual = 0.0273195, Final residual = 0.000253311, No Iterations 14
time step continuity errors : sum local = 0.00270587, global = 0.00020697, cumulative = 0.0143109
smoothSolver:  Solving for epsilon, Initial residual = 0.00356149, Final residual = 0.000181905, No Iterations 1
smoothSolver:  Solving for k, Initial residual = 0.00566517, Final residual = 0.00034034, No Iterations 1
ExecutionTime = 3.95 s  ClockTime = 4 s

Time = 63

smoothSolver:  Solving for Ux, Initial residual = 0.00399748, Final residual = 0.00038511, No Iterations 1
smoothSolver:  Solving for Uy, Initial residual = 0.00280935, Final residual = 0.000266869, No Iterations 1
GAMG:  Solving for p, Initial residual = 0.0271845, Final residual = 0.000263889, No Iterations 12
time step continuity errors : sum local = 0.0028173, global = 0.000245491, cumulative = 0.0145564
smoothSolver:  Solving for epsilon, Initial residual = 0.00350234, Final residual = 0.000178608, No Iterations 1
smoothSolver:  Solving for k, Initial residual = 0.00557125, Final residual = 0.000333866, No Iterations 1
ExecutionTime = 4 s  ClockTime = 4 s

Time = 64

smoothSolver:  Solving for Ux, Initial residual = 0.00394477, Final residual = 0.000380108, No Iterations 1
smoothSolver:  Solving for Uy, Initial residual = 0.00278864, Final residual = 0.000264882, No Iterations 1
GAMG:  Solving for p, Initial residual = 0.026934, Final residual = 0.000251457, No Iterations 10
time step continuity errors : sum local = 0.00268603, global = 0.000344211, cumulative = 0.0149006
smoothSolver:  Solving for epsilon, Initial residual = 0.00345666, Final residual = 0.000176053, No Iterations 1
smoothSolver:  Solving for k, Initial residual = 0.00548143, Final residual = 0.000328213, No Iterations 1
ExecutionTime = 4.04 s  ClockTime = 4 s

Time = 65

smoothSolver:  Solving for Ux, Initial residual = 0.00389226, Final residual = 0.000375031, No Iterations 1
smoothSolver:  Solving for Uy, Initial residual = 0.00277424, Final residual = 0.000263517, No Iterations 1
GAMG:  Solving for p, Initial residual = 0.0260879, Final residual = 0.000248578, No Iterations 10
time step continuity errors : sum local = 0.00265811, global = 0.000340861, cumulative = 0.0152414
smoothSolver:  Solving for epsilon, Initial residual = 0.00340004, Final residual = 0.000172625, No Iterations 1
smoothSolver:  Solving for k, Initial residual = 0.00539419, Final residual = 0.000323102, No Iterations 1
ExecutionTime = 4.09 s  ClockTime = 4 s

Time = 66

smoothSolver:  Solving for Ux, Initial residual = 0.00384026, Final residual = 0.00037, No Iterations 1
smoothSolver:  Solving for Uy, Initial residual = 0.00276153, Final residual = 0.000262375, No Iterations 1
GAMG:  Solving for p, Initial residual = 0.0247945, Final residual = 0.000221708, No Iterations 12
time step continuity errors : sum local = 0.00237244, global = 0.000249429, cumulative = 0.0154909
smoothSolver:  Solving for epsilon, Initial residual = 0.00333992, Final residual = 0.000169298, No Iterations 1
smoothSolver:  Solving for k, Initial residual = 0.00531216, Final residual = 0.000317817, No Iterations 1
ExecutionTime = 4.14 s  ClockTime = 4 s

Time = 67

smoothSolver:  Solving for Ux, Initial residual = 0.00378761, Final residual = 0.000364928, No Iterations 1
smoothSolver:  Solving for Uy, Initial residual = 0.00274862, Final residual = 0.000261211, No Iterations 1
GAMG:  Solving for p, Initial residual = 0.0234803, Final residual = 0.000232222, No Iterations 12
time step continuity errors : sum local = 0.0024839, global = 0.000277553, cumulative = 0.0157684
smoothSolver:  Solving for epsilon, Initial residual = 0.00329332, Final residual = 0.000165978, No Iterations 1
smoothSolver:  Solving for k, Initial residual = 0.00523627, Final residual = 0.000312774, No Iterations 1
ExecutionTime = 4.2 s  ClockTime = 4 s

Time = 68

smoothSolver:  Solving for Ux, Initial residual = 0.00373517, Final residual = 0.000359724, No Iterations 1
smoothSolver:  Solving for Uy, Initial residual = 0.00273414, Final residual = 0.000259882, No Iterations 1
GAMG:  Solving for p, Initial residual = 0.0222599, Final residual = 0.000194711, No Iterations 16
time step continuity errors : sum local = 0.00208063, global = 0.000291144, cumulative = 0.0160596
smoothSolver:  Solving for epsilon, Initial residual = 0.00325775, Final residual = 0.000163821, No Iterations 1
smoothSolver:  Solving for k, Initial residual = 0.00516155, Final residual = 0.000307568, No Iterations 1
ExecutionTime = 4.26 s  ClockTime = 4 s

Time = 69

smoothSolver:  Solving for Ux, Initial residual = 0.00368221, Final residual = 0.00035442, No Iterations 1
smoothSolver:  Solving for Uy, Initial residual = 0.00271659, Final residual = 0.000258272, No Iterations 1
GAMG:  Solving for p, Initial residual = 0.0210672, Final residual = 0.000199787, No Iterations 16
time step continuity errors : sum local = 0.00213247, global = 0.000322389, cumulative = 0.0163819
smoothSolver:  Solving for epsilon, Initial residual = 0.00321144, Final residual = 0.000160512, No Iterations 1
smoothSolver:  Solving for k, Initial residual = 0.00508828, Final residual = 0.000302773, No Iterations 1
ExecutionTime = 4.31 s  ClockTime = 4 s

Time = 70

smoothSolver:  Solving for Ux, Initial residual = 0.00363273, Final residual = 0.000349449, No Iterations 1
smoothSolver:  Solving for Uy, Initial residual = 0.00269795, Final residual = 0.000256457, No Iterations 1
GAMG:  Solving for p, Initial residual = 0.02042, Final residual = 0.000188306, No Iterations 18
time step continuity errors : sum local = 0.00200758, global = 0.00035585, cumulative = 0.0167378
smoothSolver:  Solving for epsilon, Initial residual = 0.00317857, Final residual = 0.000158284, No Iterations 1
smoothSolver:  Solving for k, Initial residual = 0.00501964, Final residual = 0.000298794, No Iterations 1
ExecutionTime = 4.37 s  ClockTime = 4 s

Time = 71

smoothSolver:  Solving for Ux, Initial residual = 0.00358729, Final residual = 0.000344892, No Iterations 1
smoothSolver:  Solving for Uy, Initial residual = 0.00267854, Final residual = 0.000254558, No Iterations 1
GAMG:  Solving for p, Initial residual = 0.0205549, Final residual = 0.000183891, No Iterations 18
time step continuity errors : sum local = 0.00195762, global = 0.000350502, cumulative = 0.0170883
smoothSolver:  Solving for epsilon, Initial residual = 0.00314223, Final residual = 0.000156311, No Iterations 1
smoothSolver:  Solving for k, Initial residual = 0.00495814, Final residual = 0.000294671, No Iterations 1
ExecutionTime = 4.43 s  ClockTime = 4 s

Time = 72

smoothSolver:  Solving for Ux, Initial residual = 0.00354432, Final residual = 0.000340631, No Iterations 1
smoothSolver:  Solving for Uy, Initial residual = 0.00265935, Final residual = 0.000252816, No Iterations 1
GAMG:  Solving for p, Initial residual = 0.0209143, Final residual = 0.00019317, No Iterations 16
time step continuity errors : sum local = 0.00205327, global = 0.000326358, cumulative = 0.0174147
smoothSolver:  Solving for epsilon, Initial residual = 0.0031111, Final residual = 0.000154174, No Iterations 1
smoothSolver:  Solving for k, Initial residual = 0.00489869, Final residual = 0.000290503, No Iterations 1
ExecutionTime = 4.48 s  ClockTime = 4 s

Time = 73

smoothSolver:  Solving for Ux, Initial residual = 0.00350291, Final residual = 0.000336549, No Iterations 1
smoothSolver:  Solving for Uy, Initial residual = 0.00264175, Final residual = 0.000251268, No Iterations 1
GAMG:  Solving for p, Initial residual = 0.0210617, Final residual = 0.000194359, No Iterations 16
time step continuity errors : sum local = 0.00206284, global = 0.000315351, cumulative = 0.01773
smoothSolver:  Solving for epsilon, Initial residual = 0.00307581, Final residual = 0.000152351, No Iterations 1
smoothSolver:  Solving for k, Initial residual = 0.00483517, Final residual = 0.000286689, No Iterations 1
ExecutionTime = 4.54 s  ClockTime = 4 s

Time = 74

smoothSolver:  Solving for Ux, Initial residual = 0.003464, Final residual = 0.000332607, No Iterations 1
smoothSolver:  Solving for Uy, Initial residual = 0.00262529, Final residual = 0.000249766, No Iterations 1
GAMG:  Solving for p, Initial residual = 0.0208304, Final residual = 0.000178423, No Iterations 16
time step continuity errors : sum local = 0.00189044, global = 0.00025543, cumulative = 0.0179854
smoothSolver:  Solving for epsilon, Initial residual = 0.00305084, Final residual = 0.000150663, No Iterations 1
smoothSolver:  Solving for k, Initial residual = 0.00477542, Final residual = 0.000283134, No Iterations 1
ExecutionTime = 4.6 s  ClockTime = 4 s

Time = 75

smoothSolver:  Solving for Ux, Initial residual = 0.00342721, Final residual = 0.00032888, No Iterations 1
smoothSolver:  Solving for Uy, Initial residual = 0.00260898, Final residual = 0.000248221, No Iterations 1
GAMG:  Solving for p, Initial residual = 0.0202428, Final residual = 0.000198824, No Iterations 14
time step continuity errors : sum local = 0.00210302, global = 0.000243706, cumulative = 0.0182291
smoothSolver:  Solving for epsilon, Initial residual = 0.00301993, Final residual = 0.0001482, No Iterations 1
smoothSolver:  Solving for k, Initial residual = 0.00471807, Final residual = 0.00027982, No Iterations 1
ExecutionTime = 4.65 s  ClockTime = 4 s

Time = 76

smoothSolver:  Solving for Ux, Initial residual = 0.00339091, Final residual = 0.000325239, No Iterations 1
smoothSolver:  Solving for Uy, Initial residual = 0.00259265, Final residual = 0.000246702, No Iterations 1
GAMG:  Solving for p, Initial residual = 0.0196068, Final residual = 0.000195329, No Iterations 14
time step continuity errors : sum local = 0.00206358, global = 0.000204626, cumulative = 0.0184338
smoothSolver:  Solving for epsilon, Initial residual = 0.00298735, Final residual = 0.000146866, No Iterations 1
smoothSolver:  Solving for k, Initial residual = 0.00466186, Final residual = 0.000276191, No Iterations 1
ExecutionTime = 4.7 s  ClockTime = 4 s

Time = 77

smoothSolver:  Solving for Ux, Initial residual = 0.00335475, Final residual = 0.000321544, No Iterations 1
smoothSolver:  Solving for Uy, Initial residual = 0.00257657, Final residual = 0.00024516, No Iterations 1
GAMG:  Solving for p, Initial residual = 0.019035, Final residual = 0.000153734, No Iterations 16
time step continuity errors : sum local = 0.00162171, global = 0.000132766, cumulative = 0.0185665
smoothSolver:  Solving for epsilon, Initial residual = 0.00296177, Final residual = 0.000145455, No Iterations 1
smoothSolver:  Solving for k, Initial residual = 0.00460843, Final residual = 0.00027307, No Iterations 1
ExecutionTime = 4.75 s  ClockTime = 4 s

Time = 78

smoothSolver:  Solving for Ux, Initial residual = 0.00331744, Final residual = 0.000317729, No Iterations 1
smoothSolver:  Solving for Uy, Initial residual = 0.00256003, Final residual = 0.000243572, No Iterations 1
GAMG:  Solving for p, Initial residual = 0.0185696, Final residual = 0.00014676, No Iterations 16
time step continuity errors : sum local = 0.00154558, global = 0.000118481, cumulative = 0.018685
smoothSolver:  Solving for epsilon, Initial residual = 0.00293013, Final residual = 0.000143263, No Iterations 1
smoothSolver:  Solving for k, Initial residual = 0.00455668, Final residual = 0.000270164, No Iterations 1
ExecutionTime = 4.81 s  ClockTime = 5 s

Time = 79

smoothSolver:  Solving for Ux, Initial residual = 0.00328087, Final residual = 0.000314027, No Iterations 1
smoothSolver:  Solving for Uy, Initial residual = 0.00254407, Final residual = 0.000242052, No Iterations 1
GAMG:  Solving for p, Initial residual = 0.0182147, Final residual = 0.000179963, No Iterations 14
time step continuity errors : sum local = 0.0018934, global = 0.000162687, cumulative = 0.0188477
smoothSolver:  Solving for epsilon, Initial residual = 0.00289534, Final residual = 0.000141433, No Iterations 1
smoothSolver:  Solving for k, Initial residual = 0.00450382, Final residual = 0.000267122, No Iterations 1
ExecutionTime = 4.86 s  ClockTime = 5 s

Time = 80

smoothSolver:  Solving for Ux, Initial residual = 0.00324514, Final residual = 0.000310485, No Iterations 1
smoothSolver:  Solving for Uy, Initial residual = 0.00252964, Final residual = 0.000240625, No Iterations 1
GAMG:  Solving for p, Initial residual = 0.0179725, Final residual = 0.000142696, No Iterations 16
time step continuity errors : sum local = 0.00150021, global = 0.00012397, cumulative = 0.0189717
smoothSolver:  Solving for epsilon, Initial residual = 0.00287085, Final residual = 0.000139715, No Iterations 1
smoothSolver:  Solving for k, Initial residual = 0.00445597, Final residual = 0.000264695, No Iterations 1
ExecutionTime = 4.92 s  ClockTime = 5 s

Time = 81

smoothSolver:  Solving for Ux, Initial residual = 0.00321004, Final residual = 0.000306975, No Iterations 1
smoothSolver:  Solving for Uy, Initial residual = 0.00251625, Final residual = 0.000239342, No Iterations 1
GAMG:  Solving for p, Initial residual = 0.0178615, Final residual = 0.000177169, No Iterations 14
time step continuity errors : sum local = 0.00186102, global = 0.000172903, cumulative = 0.0191446
smoothSolver:  Solving for epsilon, Initial residual = 0.00284548, Final residual = 0.000138156, No Iterations 1
smoothSolver:  Solving for k, Initial residual = 0.00440762, Final residual = 0.000261111, No Iterations 1
ExecutionTime = 4.97 s  ClockTime = 5 s

Time = 82

smoothSolver:  Solving for Ux, Initial residual = 0.00317586, Final residual = 0.000303594, No Iterations 1
smoothSolver:  Solving for Uy, Initial residual = 0.00250337, Final residual = 0.000238134, No Iterations 1
GAMG:  Solving for p, Initial residual = 0.0178583, Final residual = 0.000146234, No Iterations 16
time step continuity errors : sum local = 0.00153541, global = 0.000147001, cumulative = 0.0192916
smoothSolver:  Solving for epsilon, Initial residual = 0.00281188, Final residual = 0.000136234, No Iterations 1
smoothSolver:  Solving for k, Initial residual = 0.00436367, Final residual = 0.000259049, No Iterations 1
ExecutionTime = 5.02 s  ClockTime = 5 s

Time = 83

smoothSolver:  Solving for Ux, Initial residual = 0.00314313, Final residual = 0.000300253, No Iterations 1
smoothSolver:  Solving for Uy, Initial residual = 0.00249071, Final residual = 0.000236942, No Iterations 1
GAMG:  Solving for p, Initial residual = 0.0178026, Final residual = 0.000146745, No Iterations 16
time step continuity errors : sum local = 0.00154021, global = 0.000154512, cumulative = 0.0194461
smoothSolver:  Solving for epsilon, Initial residual = 0.00278728, Final residual = 0.000135019, No Iterations 1
smoothSolver:  Solving for k, Initial residual = 0.00431995, Final residual = 0.000256167, No Iterations 1
ExecutionTime = 5.07 s  ClockTime = 5 s

Time = 84

smoothSolver:  Solving for Ux, Initial residual = 0.00311142, Final residual = 0.000297129, No Iterations 1
smoothSolver:  Solving for Uy, Initial residual = 0.00247816, Final residual = 0.0002358, No Iterations 1
GAMG:  Solving for p, Initial residual = 0.0176507, Final residual = 0.000147619, No Iterations 16
time step continuity errors : sum local = 0.00154874, global = 0.000160185, cumulative = 0.0196063
smoothSolver:  Solving for epsilon, Initial residual = 0.00275735, Final residual = 0.000133407, No Iterations 1
smoothSolver:  Solving for k, Initial residual = 0.00427915, Final residual = 0.000253803, No Iterations 1
ExecutionTime = 5.12 s  ClockTime = 5 s

Time = 85

smoothSolver:  Solving for Ux, Initial residual = 0.00307979, Final residual = 0.000293996, No Iterations 1
smoothSolver:  Solving for Uy, Initial residual = 0.00246596, Final residual = 0.000234647, No Iterations 1
GAMG:  Solving for p, Initial residual = 0.0174911, Final residual = 0.000147782, No Iterations 16
time step continuity errors : sum local = 0.00154983, global = 0.000162087, cumulative = 0.0197684
smoothSolver:  Solving for epsilon, Initial residual = 0.00272725, Final residual = 0.000131989, No Iterations 1
smoothSolver:  Solving for k, Initial residual = 0.0042391, Final residual = 0.000251261, No Iterations 1
ExecutionTime = 5.18 s  ClockTime = 5 s

Time = 86

smoothSolver:  Solving for Ux, Initial residual = 0.00304821, Final residual = 0.000290942, No Iterations 1
smoothSolver:  Solving for Uy, Initial residual = 0.00245349, Final residual = 0.000233474, No Iterations 1
GAMG:  Solving for p, Initial residual = 0.0173526, Final residual = 0.000150872, No Iterations 16
time step continuity errors : sum local = 0.001581, global = 0.000165127, cumulative = 0.0199335
smoothSolver:  Solving for epsilon, Initial residual = 0.00270792, Final residual = 0.000130665, No Iterations 1
smoothSolver:  Solving for k, Initial residual = 0.00419912, Final residual = 0.000249013, No Iterations 1
ExecutionTime = 5.23 s  ClockTime = 5 s

Time = 87

smoothSolver:  Solving for Ux, Initial residual = 0.00301871, Final residual = 0.0002879, No Iterations 1
smoothSolver:  Solving for Uy, Initial residual = 0.00244043, Final residual = 0.00023225, No Iterations 1
GAMG:  Solving for p, Initial residual = 0.0172222, Final residual = 0.000151202, No Iterations 16
time step continuity errors : sum local = 0.00158277, global = 0.000159942, cumulative = 0.0200934
smoothSolver:  Solving for epsilon, Initial residual = 0.00268261, Final residual = 0.000129239, No Iterations 1
smoothSolver:  Solving for k, Initial residual = 0.00416277, Final residual = 0.000246632, No Iterations 1
ExecutionTime = 5.29 s  ClockTime = 5 s

Time = 88

smoothSolver:  Solving for Ux, Initial residual = 0.00299009, Final residual = 0.000285091, No Iterations 1
smoothSolver:  Solving for Uy, Initial residual = 0.00242721, Final residual = 0.000231028, No Iterations 1
GAMG:  Solving for p, Initial residual = 0.0171476, Final residual = 0.000145593, No Iterations 16
time step continuity errors : sum local = 0.00152249, global = 0.000144887, cumulative = 0.0202383
smoothSolver:  Solving for epsilon, Initial residual = 0.00265195, Final residual = 0.000127455, No Iterations 1
smoothSolver:  Solving for k, Initial residual = 0.00412916, Final residual = 0.000244541, No Iterations 1
ExecutionTime = 5.34 s  ClockTime = 5 s

Time = 89

smoothSolver:  Solving for Ux, Initial residual = 0.00296145, Final residual = 0.000282402, No Iterations 1
smoothSolver:  Solving for Uy, Initial residual = 0.00241376, Final residual = 0.000229752, No Iterations 1
GAMG:  Solving for p, Initial residual = 0.0171726, Final residual = 0.000140122, No Iterations 16
time step continuity errors : sum local = 0.00146319, global = 0.000129941, cumulative = 0.0203683
smoothSolver:  Solving for epsilon, Initial residual = 0.00263311, Final residual = 0.000126446, No Iterations 1
smoothSolver:  Solving for k, Initial residual = 0.00409648, Final residual = 0.000242362, No Iterations 1
ExecutionTime = 5.4 s  ClockTime = 5 s

Time = 90

smoothSolver:  Solving for Ux, Initial residual = 0.00293402, Final residual = 0.000279772, No Iterations 1
smoothSolver:  Solving for Uy, Initial residual = 0.00239988, Final residual = 0.000228488, No Iterations 1
GAMG:  Solving for p, Initial residual = 0.0171472, Final residual = 0.000166389, No Iterations 14
time step continuity errors : sum local = 0.00173458, global = 0.000149373, cumulative = 0.0205176
smoothSolver:  Solving for epsilon, Initial residual = 0.0026138, Final residual = 0.000125091, No Iterations 1
smoothSolver:  Solving for k, Initial residual = 0.00406472, Final residual = 0.000240173, No Iterations 1
ExecutionTime = 5.45 s  ClockTime = 5 s

Time = 91

smoothSolver:  Solving for Ux, Initial residual = 0.00290828, Final residual = 0.000277268, No Iterations 1
smoothSolver:  Solving for Uy, Initial residual = 0.0023859, Final residual = 0.000227267, No Iterations 1
GAMG:  Solving for p, Initial residual = 0.0171261, Final residual = 0.000160132, No Iterations 14
time step continuity errors : sum local = 0.00166693, global = 0.000135331, cumulative = 0.020653
smoothSolver:  Solving for epsilon, Initial residual = 0.00258791, Final residual = 0.000124066, No Iterations 1
smoothSolver:  Solving for k, Initial residual = 0.00403502, Final residual = 0.000238127, No Iterations 1
ExecutionTime = 5.5 s  ClockTime = 5 s

Time = 92

smoothSolver:  Solving for Ux, Initial residual = 0.00288475, Final residual = 0.000274805, No Iterations 1
smoothSolver:  Solving for Uy, Initial residual = 0.00237245, Final residual = 0.000226023, No Iterations 1
GAMG:  Solving for p, Initial residual = 0.0170455, Final residual = 0.000153026, No Iterations 14
time step continuity errors : sum local = 0.0015907, global = 0.000119238, cumulative = 0.0207722
smoothSolver:  Solving for epsilon, Initial residual = 0.00256779, Final residual = 0.000122873, No Iterations 1
smoothSolver:  Solving for k, Initial residual = 0.0040049, Final residual = 0.000235909, No Iterations 1
ExecutionTime = 5.55 s  ClockTime = 5 s

Time = 93

smoothSolver:  Solving for Ux, Initial residual = 0.00286025, Final residual = 0.000272595, No Iterations 1
smoothSolver:  Solving for Uy, Initial residual = 0.00235909, Final residual = 0.000224729, No Iterations 1
GAMG:  Solving for p, Initial residual = 0.0169213, Final residual = 0.000141333, No Iterations 14
time step continuity errors : sum local = 0.00146713, global = 0.000107463, cumulative = 0.0208797
smoothSolver:  Solving for epsilon, Initial residual = 0.00254491, Final residual = 0.000121398, No Iterations 1
smoothSolver:  Solving for k, Initial residual = 0.00397394, Final residual = 0.000233727, No Iterations 1
ExecutionTime = 5.6 s  ClockTime = 5 s

Time = 94

smoothSolver:  Solving for Ux, Initial residual = 0.00283584, Final residual = 0.000270379, No Iterations 1
smoothSolver:  Solving for Uy, Initial residual = 0.00234547, Final residual = 0.000223416, No Iterations 1
GAMG:  Solving for p, Initial residual = 0.0168094, Final residual = 0.000162543, No Iterations 11
time step continuity errors : sum local = 0.00168494, global = 0.000171557, cumulative = 0.0210512
smoothSolver:  Solving for epsilon, Initial residual = 0.00252142, Final residual = 0.000120324, No Iterations 1
smoothSolver:  Solving for k, Initial residual = 0.00394131, Final residual = 0.000232031, No Iterations 1
ExecutionTime = 5.65 s  ClockTime = 5 s

Time = 95

smoothSolver:  Solving for Ux, Initial residual = 0.00281265, Final residual = 0.000268138, No Iterations 1
smoothSolver:  Solving for Uy, Initial residual = 0.00233169, Final residual = 0.000222185, No Iterations 1
GAMG:  Solving for p, Initial residual = 0.016732, Final residual = 0.000159145, No Iterations 13
time step continuity errors : sum local = 0.00164792, global = 0.000109829, cumulative = 0.021161
smoothSolver:  Solving for epsilon, Initial residual = 0.002502, Final residual = 0.00011914, No Iterations 1
smoothSolver:  Solving for k, Initial residual = 0.00391199, Final residual = 0.000228943, No Iterations 1
ExecutionTime = 5.7 s  ClockTime = 5 s

Time = 96

smoothSolver:  Solving for Ux, Initial residual = 0.00279034, Final residual = 0.000265909, No Iterations 1
smoothSolver:  Solving for Uy, Initial residual = 0.00231785, Final residual = 0.000220979, No Iterations 1
GAMG:  Solving for p, Initial residual = 0.0166818, Final residual = 0.000137058, No Iterations 15
time step continuity errors : sum local = 0.00141742, global = 9.17538e-05, cumulative = 0.0212528
smoothSolver:  Solving for epsilon, Initial residual = 0.00247489, Final residual = 0.000117735, No Iterations 1
smoothSolver:  Solving for k, Initial residual = 0.00388297, Final residual = 0.000226934, No Iterations 1
ExecutionTime = 5.75 s  ClockTime = 5 s

Time = 97

smoothSolver:  Solving for Ux, Initial residual = 0.00276766, Final residual = 0.000263667, No Iterations 1
smoothSolver:  Solving for Uy, Initial residual = 0.00230462, Final residual = 0.000219803, No Iterations 1
GAMG:  Solving for p, Initial residual = 0.0166426, Final residual = 0.000140175, No Iterations 15
time step continuity errors : sum local = 0.00144771, global = 0.000116646, cumulative = 0.0213694
smoothSolver:  Solving for epsilon, Initial residual = 0.00244921, Final residual = 0.000116713, No Iterations 1
smoothSolver:  Solving for k, Initial residual = 0.00385612, Final residual = 0.000225228, No Iterations 1
ExecutionTime = 5.81 s  ClockTime = 6 s

Time = 98

smoothSolver:  Solving for Ux, Initial residual = 0.00274405, Final residual = 0.000261658, No Iterations 1
smoothSolver:  Solving for Uy, Initial residual = 0.00229189, Final residual = 0.000218616, No Iterations 1
GAMG:  Solving for p, Initial residual = 0.0165789, Final residual = 0.000139654, No Iterations 15
time step continuity errors : sum local = 0.0014407, global = 0.00011762, cumulative = 0.0214871
smoothSolver:  Solving for epsilon, Initial residual = 0.0024267, Final residual = 0.000116021, No Iterations 1
smoothSolver:  Solving for k, Initial residual = 0.00383039, Final residual = 0.0002234, No Iterations 1
ExecutionTime = 5.86 s  ClockTime = 6 s

Time = 99

smoothSolver:  Solving for Ux, Initial residual = 0.00272091, Final residual = 0.000259572, No Iterations 1
smoothSolver:  Solving for Uy, Initial residual = 0.00227939, Final residual = 0.000217435, No Iterations 1
GAMG:  Solving for p, Initial residual = 0.0165406, Final residual = 0.000140121, No Iterations 15
time step continuity errors : sum local = 0.00144369, global = 0.000118484, cumulative = 0.0216056
smoothSolver:  Solving for epsilon, Initial residual = 0.00240584, Final residual = 0.000114728, No Iterations 1
smoothSolver:  Solving for k, Initial residual = 0.00380457, Final residual = 0.000221262, No Iterations 1
ExecutionTime = 5.91 s  ClockTime = 6 s

Time = 100

smoothSolver:  Solving for Ux, Initial residual = 0.00269881, Final residual = 0.000257441, No Iterations 1
smoothSolver:  Solving for Uy, Initial residual = 0.00226631, Final residual = 0.000216293, No Iterations 1
GAMG:  Solving for p, Initial residual = 0.0165436, Final residual = 0.000141283, No Iterations 15
time step continuity errors : sum local = 0.00145403, global = 0.000119234, cumulative = 0.0217248
smoothSolver:  Solving for epsilon, Initial residual = 0.0023772, Final residual = 0.000113587, No Iterations 1
smoothSolver:  Solving for k, Initial residual = 0.00377582, Final residual = 0.000219323, No Iterations 1
ExecutionTime = 6.04 s  ClockTime = 6 s

forces force write:
    sum of forces:
        pressure : (-6.57683e-06 0.0306363 -3.52908e-20)
        viscous  : (8.00026e-07 -0.00026711 1.10197e-21)
        porous   : (0 0 0)
    sum of moments:
        pressure : (-5.90903e-22 1.72914e-22 3.26162e-07)
        viscous  : (1.52631e-23 -2.17212e-24 -7.7168e-09)
        porous   : (0 0 0)

surfaceFieldValue pInlet write:
    average(inlet) of p = 64.6363

Time = 101

smoothSolver:  Solving for Ux, Initial residual = 0.00267805, Final residual = 0.000255326, No Iterations 1
smoothSolver:  Solving for Uy, Initial residual = 0.00225313, Final residual = 0.000215136, No Iterations 1
GAMG:  Solving for p, Initial residual = 0.016542, Final residual = 0.000144269, No Iterations 15
time step continuity errors : sum local = 0.001483, global = 0.000127698, cumulative = 0.0218525
smoothSolver:  Solving for epsilon, Initial residual = 0.00235952, Final residual = 0.000112419, No Iterations 1
smoothSolver:  Solving for k, Initial residual = 0.00375128, Final residual = 0.000217354, No Iterations 1
ExecutionTime = 6.09 s  ClockTime = 6 s

Time = 102

smoothSolver:  Solving for Ux, Initial residual = 0.0026566, Final residual = 0.000253274, No Iterations 1
smoothSolver:  Solving for Uy, Initial residual = 0.00224008, Final residual = 0.000213988, No Iterations 1
GAMG:  Solving for p, Initial residual = 0.0165047, Final residual = 0.000146797, No Iterations 15
time step continuity errors : sum local = 0.00150717, global = 0.000127998, cumulative = 0.0219805
smoothSolver:  Solving for epsilon, Initial residual = 0.00233685, Final residual = 0.000111342, No Iterations 1
smoothSolver:  Solving for k, Initial residual = 0.00372686, Final residual = 0.000215074, No Iterations 1
ExecutionTime = 6.14 s  ClockTime = 6 s

Time = 103

smoothSolver:  Solving for Ux, Initial residual = 0.00263455, Final residual = 0.000251424, No Iterations 1
smoothSolver:  Solving for Uy, Initial residual = 0.00222698, Final residual = 0.000212809, No Iterations 1
GAMG:  Solving for p, Initial residual = 0.0164746, Final residual = 0.000148603, No Iterations 15
time step continuity errors : sum local = 0.00152372, global = 0.000125757, cumulative = 0.0221062
smoothSolver:  Solving for epsilon, Initial residual = 0.00231261, Final residual = 0.000110392, No Iterations 1
smoothSolver:  Solving for k, Initial residual = 0.00370266, Final residual = 0.00021349, No Iterations 1
ExecutionTime = 6.2 s  ClockTime = 6 s

Time = 104

smoothSolver:  Solving for Ux, Initial residual = 0.00261285, Final residual = 0.000249522, No Iterations 1
smoothSolver:  Solving for Uy, Initial residual = 0.0022142, Final residual = 0.000211659, No Iterations 1
GAMG:  Solving for p, Initial residual = 0.0164722, Final residual = 0.000149584, No Iterations 15
time step continuity errors : sum local = 0.00153195, global = 0.000121783, cumulative = 0.022228
smoothSolver:  Solving for epsilon, Initial residual = 0.00229516, Final residual = 0.000109357, No Iterations 1
smoothSolver:  Solving for k, Initial residual = 0.00367508, Final residual = 0.00021176, No Iterations 1
ExecutionTime = 6.24 s  ClockTime = 6 s

Time = 105

smoothSolver:  Solving for Ux, Initial residual = 0.00259286, Final residual = 0.000247615, No Iterations 1
smoothSolver:  Solving for Uy, Initial residual = 0.00220147, Final residual = 0.000210497, No Iterations 1
GAMG:  Solving for p, Initial residual = 0.0164566, Final residual = 0.000149675, No Iterations 15
time step continuity errors : sum local = 0.00153061, global = 0.000116651, cumulative = 0.0223447
smoothSolver:  Solving for epsilon, Initial residual = 0.00227367, Final residual = 0.000108285, No Iterations 1
smoothSolver:  Solving for k, Initial residual = 0.00364933, Final residual = 0.000209917, No Iterations 1
ExecutionTime = 6.3 s  ClockTime = 6 s

Time = 106

smoothSolver:  Solving for Ux, Initial residual = 0.00257409, Final residual = 0.000245733, No Iterations 1
smoothSolver:  Solving for Uy, Initial residual = 0.00218874, Final residual = 0.00020933, No Iterations 1
GAMG:  Solving for p, Initial residual = 0.0164238, Final residual = 0.000147508, No Iterations 15
time step continuity errors : sum local = 0.00150619, global = 0.000109702, cumulative = 0.0224544
smoothSolver:  Solving for epsilon, Initial residual = 0.00224779, Final residual = 0.000107339, No Iterations 1
smoothSolver:  Solving for k, Initial residual = 0.00362732, Final residual = 0.000208641, No Iterations 1
ExecutionTime = 6.36 s  ClockTime = 6 s

Time = 107

smoothSolver:  Solving for Ux, Initial residual = 0.00255492, Final residual = 0.000243955, No Iterations 1
smoothSolver:  Solving for Uy, Initial residual = 0.00217522, Final residual = 0.00020812, No Iterations 1
GAMG:  Solving for p, Initial residual = 0.0164078, Final residual = 0.000147078, No Iterations 15
time step continuity errors : sum local = 0.00149936, global = 0.000106146, cumulative = 0.0225605
smoothSolver:  Solving for epsilon, Initial residual = 0.00222996, Final residual = 0.000106247, No Iterations 1
smoothSolver:  Solving for k, Initial residual = 0.00360557, Final residual = 0.000207122, No Iterations 1
ExecutionTime = 6.41 s  ClockTime = 6 s

Time = 108

smoothSolver:  Solving for Ux, Initial residual = 0.00253553, Final residual = 0.000242321, No Iterations 1
smoothSolver:  Solving for Uy, Initial residual = 0.00216165, Final residual = 0.000206959, No Iterations 1
GAMG:  Solving for p, Initial residual = 0.0163778, Final residual = 0.000147347, No Iterations 15
time step continuity errors : sum local = 0.00149967, global = 0.000104337, cumulative = 0.0226649
smoothSolver:  Solving for epsilon, Initial residual = 0.00221038, Final residual = 0.000105462, No Iterations 1
smoothSolver:  Solving for k, Initial residual = 0.00358159, Final residual = 0.000205504, No Iterations 1
ExecutionTime = 6.47 s  ClockTime = 6 s

Time = 109

smoothSolver:  Solving for Ux, Initial residual = 0.00251614, Final residual = 0.000240698, No Iterations 1
smoothSolver:  Solving for Uy, Initial residual = 0.00214848, Final residual = 0.000205827, No Iterations 1
GAMG:  Solving for p, Initial residual = 0.0163749, Final residual = 0.000148659, No Iterations 15
time step continuity errors : sum local = 0.00151042, global = 0.000104327, cumulative = 0.0227692
smoothSolver:  Solving for epsilon, Initial residual = 0.00218783, Final residual = 0.000104226, No Iterations 1
smoothSolver:  Solving for k, Initial residual = 0.00355852, Final residual = 0.000204101, No Iterations 1
ExecutionTime = 6.51 s  ClockTime = 6 s

Time = 110

smoothSolver:  Solving for Ux, Initial residual = 0.00249836, Final residual = 0.000239044, No Iterations 1
smoothSolver:  Solving for Uy, Initial residual = 0.0021355, Final residual = 0.000204706, No Iterations 1
GAMG:  Solving for p, Initial residual = 0.0163544, Final residual = 0.000148072, No Iterations 15
time step continuity errors : sum local = 0.00150198, global = 0.000103668, cumulative = 0.0228729
smoothSolver:  Solving for epsilon, Initial residual = 0.00216936, Final residual = 0.000103361, No Iterations 1
smoothSolver:  Solving for k, Initial residual = 0.00353357, Final residual = 0.000202664, No Iterations 1
ExecutionTime = 6.56 s  ClockTime = 6 s

Time = 111

smoothSolver:  Solving for Ux, Initial residual = 0.00248204, Final residual = 0.000237382, No Iterations 1
smoothSolver:  Solving for Uy, Initial residual = 0.0021223, Final residual = 0.000203544, No Iterations 1
GAMG:  Solving for p, Initial residual = 0.0162843, Final residual = 0.000148957, No Iterations 15
time step continuity errors : sum local = 0.00150841, global = 0.000104951, cumulative = 0.0229778
smoothSolver:  Solving for epsilon, Initial residual = 0.00215013, Final residual = 0.000102458, No Iterations 1
smoothSolver:  Solving for k, Initial residual = 0.00351021, Final residual = 0.000201241, No Iterations 1
ExecutionTime = 6.62 s  ClockTime = 6 s

Time = 112

smoothSolver:  Solving for Ux, Initial residual = 0.00246457, Final residual = 0.000235785, No Iterations 1
smoothSolver:  Solving for Uy, Initial residual = 0.00210909, Final residual = 0.000202383, No Iterations 1
GAMG:  Solving for p, Initial residual = 0.0161988, Final residual = 0.000149997, No Iterations 15
time step continuity errors : sum local = 0.00151672, global = 0.000106578, cumulative = 0.0230844
smoothSolver:  Solving for epsilon, Initial residual = 0.00212557, Final residual = 0.000101578, No Iterations 1
smoothSolver:  Solving for k, Initial residual = 0.00348742, Final residual = 0.000199583, No Iterations 1
ExecutionTime = 6.68 s  ClockTime = 6 s

Time = 113

smoothSolver:  Solving for Ux, Initial residual = 0.0024463, Final residual = 0.000234287, No Iterations 1
smoothSolver:  Solving for Uy, Initial residual = 0.00209611, Final residual = 0.000201246, No Iterations 1
GAMG:  Solving for p, Initial residual = 0.0162027, Final residual = 0.000150766, No Iterations 15
time step continuity errors : sum local = 0.00152217, global = 0.000108047, cumulative = 0.0231924
smoothSolver:  Solving for epsilon, Initial residual = 0.00211012, Final residual = 0.000100677, No Iterations 1
smoothSolver:  Solving for k, Initial residual = 0.00346348, Final residual = 0.00019808, No Iterations 1
ExecutionTime = 6.73 s  ClockTime = 6 s

Time = 114

smoothSolver:  Solving for Ux, Initial residual = 0.00242761, Final residual = 0.000232803, No Iterations 1
smoothSolver:  Solving for Uy, Initial residual = 0.00208357, Final residual = 0.000200128, No Iterations 1
GAMG:  Solving for p, Initial residual = 0.0162057, Final residual = 0.000150792, No Iterations 15
time step continuity errors : sum local = 0.00152019, global = 0.000108512, cumulative = 0.0233009
[...]
smoothSolver:  Solving for k, Initial residual = 0.00106364, Final residual = 9.01049e-05, No Iterations 1
ExecutionTime = 117.02 s  ClockTime = 117 s

Time = 1973

smoothSolver:  Solving for Ux, Initial residual = 0.00296782, Final residual = 3.35362e-05, No Iterations 2
smoothSolver:  Solving for Uy, Initial residual = 0.000601034, Final residual = 6.12356e-06, No Iterations 2
GAMG:  Solving for p, Initial residual = 0.00967097, Final residual = 9.05505e-05, No Iterations 18
time step continuity errors : sum local = 0.000964109, global = 0.000160625, cumulative = 0.022659
smoothSolver:  Solving for epsilon, Initial residual = 0.0012011, Final residual = 9.11275e-05, No Iterations 1
smoothSolver:  Solving for k, Initial residual = 0.00106419, Final residual = 9.01073e-05, No Iterations 1
ExecutionTime = 117.08 s  ClockTime = 117 s

Time = 1974

smoothSolver:  Solving for Ux, Initial residual = 0.0029675, Final residual = 3.35305e-05, No Iterations 2
smoothSolver:  Solving for Uy, Initial residual = 0.000600614, Final residual = 6.12135e-06, No Iterations 2
GAMG:  Solving for p, Initial residual = 0.0096827, Final residual = 8.96553e-05, No Iterations 18
time step continuity errors : sum local = 0.000955065, global = 0.000157933, cumulative = 0.0228169
smoothSolver:  Solving for epsilon, Initial residual = 0.0011974, Final residual = 9.12281e-05, No Iterations 1
smoothSolver:  Solving for k, Initial residual = 0.00106488, Final residual = 9.01792e-05, No Iterations 1
ExecutionTime = 117.14 s  ClockTime = 117 s

Time = 1975

smoothSolver:  Solving for Ux, Initial residual = 0.00296731, Final residual = 3.35274e-05, No Iterations 2
smoothSolver:  Solving for Uy, Initial residual = 0.00060026, Final residual = 6.11919e-06, No Iterations 2
GAMG:  Solving for p, Initial residual = 0.00968375, Final residual = 8.85298e-05, No Iterations 18
time step continuity errors : sum local = 0.000943178, global = 0.000154546, cumulative = 0.0229715
smoothSolver:  Solving for epsilon, Initial residual = 0.0011999, Final residual = 9.14304e-05, No Iterations 1
smoothSolver:  Solving for k, Initial residual = 0.00106496, Final residual = 9.02751e-05, No Iterations 1
ExecutionTime = 117.2 s  ClockTime = 117 s

Time = 1976

smoothSolver:  Solving for Ux, Initial residual = 0.00296702, Final residual = 3.35263e-05, No Iterations 2
smoothSolver:  Solving for Uy, Initial residual = 0.000600075, Final residual = 6.11895e-06, No Iterations 2
GAMG:  Solving for p, Initial residual = 0.00964799, Final residual = 8.75173e-05, No Iterations 18
time step continuity errors : sum local = 0.0009323, global = 0.000151372, cumulative = 0.0231228
smoothSolver:  Solving for epsilon, Initial residual = 0.00120398, Final residual = 9.15931e-05, No Iterations 1
smoothSolver:  Solving for k, Initial residual = 0.00106554, Final residual = 9.03486e-05, No Iterations 1
ExecutionTime = 117.25 s  ClockTime = 117 s

Time = 1977

smoothSolver:  Solving for Ux, Initial residual = 0.00296637, Final residual = 3.35192e-05, No Iterations 2
smoothSolver:  Solving for Uy, Initial residual = 0.000600214, Final residual = 6.1216e-06, No Iterations 2
GAMG:  Solving for p, Initial residual = 0.0097133, Final residual = 8.67899e-05, No Iterations 18
time step continuity errors : sum local = 0.000924616, global = 0.000148946, cumulative = 0.0232718
smoothSolver:  Solving for epsilon, Initial residual = 0.00120566, Final residual = 9.17407e-05, No Iterations 1
smoothSolver:  Solving for k, Initial residual = 0.0010657, Final residual = 9.03852e-05, No Iterations 1
ExecutionTime = 117.3 s  ClockTime = 117 s

Time = 1978

smoothSolver:  Solving for Ux, Initial residual = 0.0029657, Final residual = 3.35105e-05, No Iterations 2
smoothSolver:  Solving for Uy, Initial residual = 0.000600534, Final residual = 6.12624e-06, No Iterations 2
GAMG:  Solving for p, Initial residual = 0.00969071, Final residual = 8.64871e-05, No Iterations 18
time step continuity errors : sum local = 0.000921666, global = 0.000147513, cumulative = 0.0234193
smoothSolver:  Solving for epsilon, Initial residual = 0.00120412, Final residual = 9.18695e-05, No Iterations 1
smoothSolver:  Solving for k, Initial residual = 0.00106604, Final residual = 9.04362e-05, No Iterations 1
ExecutionTime = 117.36 s  ClockTime = 117 s

Time = 1979

smoothSolver:  Solving for Ux, Initial residual = 0.00296464, Final residual = 3.35045e-05, No Iterations 2
smoothSolver:  Solving for Uy, Initial residual = 0.000600934, Final residual = 6.13096e-06, No Iterations 2
GAMG:  Solving for p, Initial residual = 0.00968366, Final residual = 8.66105e-05, No Iterations 18
time step continuity errors : sum local = 0.000922886, global = 0.000147133, cumulative = 0.0235664
smoothSolver:  Solving for epsilon, Initial residual = 0.00120758, Final residual = 9.19425e-05, No Iterations 1
smoothSolver:  Solving for k, Initial residual = 0.00106657, Final residual = 9.04227e-05, No Iterations 1
ExecutionTime = 117.42 s  ClockTime = 117 s

Time = 1980

smoothSolver:  Solving for Ux, Initial residual = 0.00296318, Final residual = 3.34984e-05, No Iterations 2
smoothSolver:  Solving for Uy, Initial residual = 0.000601353, Final residual = 6.13549e-06, No Iterations 2
GAMG:  Solving for p, Initial residual = 0.00975903, Final residual = 8.69028e-05, No Iterations 18
time step continuity errors : sum local = 0.00092631, global = 0.000147296, cumulative = 0.0237137
smoothSolver:  Solving for epsilon, Initial residual = 0.00120679, Final residual = 9.20044e-05, No Iterations 1
smoothSolver:  Solving for k, Initial residual = 0.0010667, Final residual = 9.05003e-05, No Iterations 1
ExecutionTime = 117.47 s  ClockTime = 117 s

Time = 1981

smoothSolver:  Solving for Ux, Initial residual = 0.00296203, Final residual = 3.34851e-05, No Iterations 2
smoothSolver:  Solving for Uy, Initial residual = 0.000601746, Final residual = 6.13826e-06, No Iterations 2
GAMG:  Solving for p, Initial residual = 0.00972562, Final residual = 8.73542e-05, No Iterations 18
time step continuity errors : sum local = 0.00093102, global = 0.00014795, cumulative = 0.0238617
smoothSolver:  Solving for epsilon, Initial residual = 0.00120964, Final residual = 9.2148e-05, No Iterations 1
smoothSolver:  Solving for k, Initial residual = 0.00106682, Final residual = 9.04872e-05, No Iterations 1
ExecutionTime = 117.53 s  ClockTime = 117 s

Time = 1982

smoothSolver:  Solving for Ux, Initial residual = 0.0029612, Final residual = 3.3465e-05, No Iterations 2
smoothSolver:  Solving for Uy, Initial residual = 0.000602122, Final residual = 6.1406e-06, No Iterations 2
GAMG:  Solving for p, Initial residual = 0.00971151, Final residual = 8.76959e-05, No Iterations 18
time step continuity errors : sum local = 0.000934603, global = 0.000148511, cumulative = 0.0240102
smoothSolver:  Solving for epsilon, Initial residual = 0.00121199, Final residual = 9.21625e-05, No Iterations 1
smoothSolver:  Solving for k, Initial residual = 0.00106683, Final residual = 9.04824e-05, No Iterations 1
ExecutionTime = 117.57 s  ClockTime = 117 s

Time = 1983

smoothSolver:  Solving for Ux, Initial residual = 0.00295975, Final residual = 3.34387e-05, No Iterations 2
smoothSolver:  Solving for Uy, Initial residual = 0.000602287, Final residual = 6.14274e-06, No Iterations 2
GAMG:  Solving for p, Initial residual = 0.00972405, Final residual = 8.78319e-05, No Iterations 18
time step continuity errors : sum local = 0.000936437, global = 0.000148662, cumulative = 0.0241589
smoothSolver:  Solving for epsilon, Initial residual = 0.00120866, Final residual = 9.22194e-05, No Iterations 1
smoothSolver:  Solving for k, Initial residual = 0.00106669, Final residual = 9.05141e-05, No Iterations 1
ExecutionTime = 117.62 s  ClockTime = 117 s

Time = 1984

smoothSolver:  Solving for Ux, Initial residual = 0.00295799, Final residual = 3.34169e-05, No Iterations 2
smoothSolver:  Solving for Uy, Initial residual = 0.000602283, Final residual = 6.14477e-06, No Iterations 2
GAMG:  Solving for p, Initial residual = 0.00971742, Final residual = 8.77336e-05, No Iterations 18
time step continuity errors : sum local = 0.000935452, global = 0.000148322, cumulative = 0.0243072
smoothSolver:  Solving for epsilon, Initial residual = 0.00121119, Final residual = 9.23393e-05, No Iterations 1
smoothSolver:  Solving for k, Initial residual = 0.00106657, Final residual = 9.05322e-05, No Iterations 1
ExecutionTime = 117.67 s  ClockTime = 117 s

Time = 1985

smoothSolver:  Solving for Ux, Initial residual = 0.00295637, Final residual = 3.34019e-05, No Iterations 2
smoothSolver:  Solving for Uy, Initial residual = 0.000602275, Final residual = 6.14632e-06, No Iterations 2
GAMG:  Solving for p, Initial residual = 0.00970239, Final residual = 8.73591e-05, No Iterations 18
time step continuity errors : sum local = 0.000931357, global = 0.000147315, cumulative = 0.0244545
smoothSolver:  Solving for epsilon, Initial residual = 0.00121501, Final residual = 9.23883e-05, No Iterations 1
smoothSolver:  Solving for k, Initial residual = 0.00106645, Final residual = 9.05061e-05, No Iterations 1
ExecutionTime = 117.73 s  ClockTime = 117 s

Time = 1986

smoothSolver:  Solving for Ux, Initial residual = 0.00295462, Final residual = 3.33918e-05, No Iterations 2
smoothSolver:  Solving for Uy, Initial residual = 0.000602257, Final residual = 6.14703e-06, No Iterations 2
GAMG:  Solving for p, Initial residual = 0.0097069, Final residual = 8.67321e-05, No Iterations 18
time step continuity errors : sum local = 0.000924841, global = 0.000145776, cumulative = 0.0246003
smoothSolver:  Solving for epsilon, Initial residual = 0.00121234, Final residual = 9.24008e-05, No Iterations 1
smoothSolver:  Solving for k, Initial residual = 0.00106621, Final residual = 9.0489e-05, No Iterations 1
ExecutionTime = 117.78 s  ClockTime = 118 s

Time = 1987

smoothSolver:  Solving for Ux, Initial residual = 0.00295286, Final residual = 3.33875e-05, No Iterations 2
smoothSolver:  Solving for Uy, Initial residual = 0.000602295, Final residual = 6.14827e-06, No Iterations 2
GAMG:  Solving for p, Initial residual = 0.0096934, Final residual = 8.60887e-05, No Iterations 18
time step continuity errors : sum local = 0.000918119, global = 0.000144092, cumulative = 0.0247444
smoothSolver:  Solving for epsilon, Initial residual = 0.00121121, Final residual = 9.24956e-05, No Iterations 1
smoothSolver:  Solving for k, Initial residual = 0.00106589, Final residual = 9.04563e-05, No Iterations 1
ExecutionTime = 117.83 s  ClockTime = 118 s

Time = 1988

smoothSolver:  Solving for Ux, Initial residual = 0.00295122, Final residual = 3.338e-05, No Iterations 2
smoothSolver:  Solving for Uy, Initial residual = 0.00060243, Final residual = 6.15046e-06, No Iterations 2
GAMG:  Solving for p, Initial residual = 0.00970157, Final residual = 8.55152e-05, No Iterations 18
time step continuity errors : sum local = 0.00091205, global = 0.000142573, cumulative = 0.0248869
smoothSolver:  Solving for epsilon, Initial residual = 0.00121532, Final residual = 9.25921e-05, No Iterations 1
smoothSolver:  Solving for k, Initial residual = 0.00106553, Final residual = 9.04285e-05, No Iterations 1
ExecutionTime = 117.89 s  ClockTime = 118 s

Time = 1989

smoothSolver:  Solving for Ux, Initial residual = 0.00294994, Final residual = 3.33682e-05, No Iterations 2
smoothSolver:  Solving for Uy, Initial residual = 0.000602654, Final residual = 6.15277e-06, No Iterations 2
GAMG:  Solving for p, Initial residual = 0.00978353, Final residual = 8.49947e-05, No Iterations 18
time step continuity errors : sum local = 0.000906668, global = 0.00014115, cumulative = 0.0250281
smoothSolver:  Solving for epsilon, Initial residual = 0.00121387, Final residual = 9.26487e-05, No Iterations 1
smoothSolver:  Solving for k, Initial residual = 0.00106497, Final residual = 9.03714e-05, No Iterations 1
ExecutionTime = 117.94 s  ClockTime = 118 s

Time = 1990

smoothSolver:  Solving for Ux, Initial residual = 0.0029491, Final residual = 3.33527e-05, No Iterations 2
smoothSolver:  Solving for Uy, Initial residual = 0.00060288, Final residual = 6.15448e-06, No Iterations 2
GAMG:  Solving for p, Initial residual = 0.00973028, Final residual = 8.46487e-05, No Iterations 18
time step continuity errors : sum local = 0.000903065, global = 0.000139955, cumulative = 0.025168
smoothSolver:  Solving for epsilon, Initial residual = 0.00121323, Final residual = 9.27058e-05, No Iterations 1
smoothSolver:  Solving for k, Initial residual = 0.00106472, Final residual = 9.03524e-05, No Iterations 1
ExecutionTime = 118 s  ClockTime = 118 s

Time = 1991

smoothSolver:  Solving for Ux, Initial residual = 0.002948, Final residual = 3.33286e-05, No Iterations 2
smoothSolver:  Solving for Uy, Initial residual = 0.000603064, Final residual = 6.15559e-06, No Iterations 2
GAMG:  Solving for p, Initial residual = 0.00974323, Final residual = 8.4499e-05, No Iterations 18
time step continuity errors : sum local = 0.000901401, global = 0.000139111, cumulative = 0.0253072
smoothSolver:  Solving for epsilon, Initial residual = 0.00121636, Final residual = 9.27012e-05, No Iterations 1
smoothSolver:  Solving for k, Initial residual = 0.00106439, Final residual = 9.03789e-05, No Iterations 1
ExecutionTime = 118.05 s  ClockTime = 118 s

Time = 1992

smoothSolver:  Solving for Ux, Initial residual = 0.00294622, Final residual = 3.32982e-05, No Iterations 2
smoothSolver:  Solving for Uy, Initial residual = 0.000603287, Final residual = 6.1571e-06, No Iterations 2
GAMG:  Solving for p, Initial residual = 0.00977228, Final residual = 8.44608e-05, No Iterations 18
time step continuity errors : sum local = 0.000901346, global = 0.000138431, cumulative = 0.0254456
smoothSolver:  Solving for epsilon, Initial residual = 0.00121313, Final residual = 9.26148e-05, No Iterations 1
smoothSolver:  Solving for k, Initial residual = 0.00106426, Final residual = 9.03905e-05, No Iterations 1
ExecutionTime = 118.11 s  ClockTime = 118 s

Time = 1993

smoothSolver:  Solving for Ux, Initial residual = 0.00294416, Final residual = 3.32755e-05, No Iterations 2
smoothSolver:  Solving for Uy, Initial residual = 0.000603526, Final residual = 6.15742e-06, No Iterations 2
GAMG:  Solving for p, Initial residual = 0.00977869, Final residual = 8.44386e-05, No Iterations 18
time step continuity errors : sum local = 0.000901111, global = 0.000137771, cumulative = 0.0255834
smoothSolver:  Solving for epsilon, Initial residual = 0.0012164, Final residual = 9.26999e-05, No Iterations 1
smoothSolver:  Solving for k, Initial residual = 0.00106386, Final residual = 9.03247e-05, No Iterations 1
ExecutionTime = 118.16 s  ClockTime = 118 s

Time = 1994

smoothSolver:  Solving for Ux, Initial residual = 0.00294211, Final residual = 3.32628e-05, No Iterations 2
smoothSolver:  Solving for Uy, Initial residual = 0.00060365, Final residual = 6.15805e-06, No Iterations 2
GAMG:  Solving for p, Initial residual = 0.00981311, Final residual = 8.43155e-05, No Iterations 18
time step continuity errors : sum local = 0.000899903, global = 0.000137019, cumulative = 0.0257204
smoothSolver:  Solving for epsilon, Initial residual = 0.00121622, Final residual = 9.26058e-05, No Iterations 1
smoothSolver:  Solving for k, Initial residual = 0.00106337, Final residual = 9.03076e-05, No Iterations 1
ExecutionTime = 118.22 s  ClockTime = 118 s

Time = 1995

smoothSolver:  Solving for Ux, Initial residual = 0.00294039, Final residual = 3.32567e-05, No Iterations 2
smoothSolver:  Solving for Uy, Initial residual = 0.000603735, Final residual = 6.15918e-06, No Iterations 2
GAMG:  Solving for p, Initial residual = 0.00979776, Final residual = 8.40601e-05, No Iterations 18
time step continuity errors : sum local = 0.000897165, global = 0.000136154, cumulative = 0.0258565
smoothSolver:  Solving for epsilon, Initial residual = 0.0012133, Final residual = 9.25145e-05, No Iterations 1
smoothSolver:  Solving for k, Initial residual = 0.00106257, Final residual = 9.02012e-05, No Iterations 1
ExecutionTime = 118.28 s  ClockTime = 118 s

Time = 1996

smoothSolver:  Solving for Ux, Initial residual = 0.00293854, Final residual = 3.32515e-05, No Iterations 2
smoothSolver:  Solving for Uy, Initial residual = 0.000603781, Final residual = 6.16044e-06, No Iterations 2
GAMG:  Solving for p, Initial residual = 0.00977625, Final residual = 8.37662e-05, No Iterations 18
time step continuity errors : sum local = 0.00089419, global = 0.000135233, cumulative = 0.0259918
smoothSolver:  Solving for epsilon, Initial residual = 0.00121318, Final residual = 9.24925e-05, No Iterations 1
smoothSolver:  Solving for k, Initial residual = 0.00106181, Final residual = 9.01784e-05, No Iterations 1
ExecutionTime = 118.34 s  ClockTime = 118 s

Time = 1997

smoothSolver:  Solving for Ux, Initial residual = 0.00293738, Final residual = 3.32417e-05, No Iterations 2
smoothSolver:  Solving for Uy, Initial residual = 0.000603833, Final residual = 6.16014e-06, No Iterations 2
GAMG:  Solving for p, Initial residual = 0.0097644, Final residual = 8.33987e-05, No Iterations 18
time step continuity errors : sum local = 0.000890219, global = 0.000134186, cumulative = 0.0261259
smoothSolver:  Solving for epsilon, Initial residual = 0.00121442, Final residual = 9.24058e-05, No Iterations 1
smoothSolver:  Solving for k, Initial residual = 0.00106106, Final residual = 9.01296e-05, No Iterations 1
ExecutionTime = 118.39 s  ClockTime = 118 s

Time = 1998

smoothSolver:  Solving for Ux, Initial residual = 0.00293644, Final residual = 3.32263e-05, No Iterations 2
smoothSolver:  Solving for Uy, Initial residual = 0.000603955, Final residual = 6.16072e-06, No Iterations 2
GAMG:  Solving for p, Initial residual = 0.00974574, Final residual = 8.29786e-05, No Iterations 18
time step continuity errors : sum local = 0.000885925, global = 0.000133216, cumulative = 0.0262592
smoothSolver:  Solving for epsilon, Initial residual = 0.00120994, Final residual = 9.23667e-05, No Iterations 1
smoothSolver:  Solving for k, Initial residual = 0.00106011, Final residual = 9.00265e-05, No Iterations 1
ExecutionTime = 118.44 s  ClockTime = 118 s

Time = 1999

smoothSolver:  Solving for Ux, Initial residual = 0.002935, Final residual = 3.32062e-05, No Iterations 2
smoothSolver:  Solving for Uy, Initial residual = 0.000604188, Final residual = 6.16232e-06, No Iterations 2
GAMG:  Solving for p, Initial residual = 0.00975904, Final residual = 8.25255e-05, No Iterations 18
time step continuity errors : sum local = 0.000881156, global = 0.000132246, cumulative = 0.0263914
smoothSolver:  Solving for epsilon, Initial residual = 0.00121227, Final residual = 9.23975e-05, No Iterations 1
smoothSolver:  Solving for k, Initial residual = 0.00105922, Final residual = 8.99478e-05, No Iterations 1
ExecutionTime = 118.5 s  ClockTime = 118 s

Time = 2000

smoothSolver:  Solving for Ux, Initial residual = 0.00293358, Final residual = 3.31824e-05, No Iterations 2
smoothSolver:  Solving for Uy, Initial residual = 0.000604394, Final residual = 6.1641e-06, No Iterations 2
GAMG:  Solving for p, Initial residual = 0.00980982, Final residual = 8.21167e-05, No Iterations 18
time step continuity errors : sum local = 0.000876798, global = 0.000131505, cumulative = 0.0265229
smoothSolver:  Solving for epsilon, Initial residual = 0.00121455, Final residual = 9.23074e-05, No Iterations 1
smoothSolver:  Solving for k, Initial residual = 0.00105839, Final residual = 8.98734e-05, No Iterations 1
ExecutionTime = 118.63 s  ClockTime = 118 s

forces force write:
    sum of forces:
        pressure : (8.96535e-05 0.0311878 -3.54986e-20)
        viscous  : (1.56125e-05 -0.000244341 6.15727e-22)
        porous   : (0 0 0)
    sum of moments:
        pressure : (-6.02048e-22 2.4894e-22 -2.85445e-06)
        viscous  : (9.12727e-24 -6.05218e-24 -4.89818e-07)
        porous   : (0 0 0)

surfaceFieldValue pInlet write:
    average(inlet) of p = 83.4883

End

