/*---------------------------------------------------------------------------*\
  =========                 |
  \\      /  F ield         | OpenFOAM: The Open Source CFD Toolbox
   \\    /   O peration     | Website:  https://openfoam.org
    \\  /    A nd           | Version:  8
     \\/     M anipulation  |
\*---------------------------------------------------------------------------*/
Build  : 8-9b73cf21a682
Exec   : simpleFoam
Date   : Nov 04 2020
Time   : 20:59:39
Host   : "55eb9ee6a15c"
PID    : 180
I/O    : uncollated
Case   : /home/student/OpenFOAM/student-8/run/Lab02-incompFlows/combustorSimple
nProcs : 1
sigFpe : Enabling floating point exception trapping (FOAM_SIGFPE).
fileModificationChecking : Monitoring run-time modified files using timeStampMaster (fileModificationSkew 10)
allowSystemOperations : Allowing user-supplied system call operations

// * * * * * * * * * * * * * * * * * * * * * * * * * * * * * * * * * * * * * //
Create time

Create mesh for time = 0


SIMPLE: Convergence criteria found
        p: tolerance 0.001
        U: tolerance 0.0001
        "(k|epsilon|omega|f|v2)": tolerance 0.001

Reading field p

Reading field U

Reading/calculating face flux field phi

Selecting incompressible transport model Newtonian
Selecting turbulence model type RAS
Selecting RAS turbulence model kEpsilon
RAS
{
    model           kEpsilon;
    turbulence      on;
    printCoeffs     on;
    Cmu             0.09;
    C1              1.44;
    C2              1.92;
    C3              0;
    sigmak          1;
    sigmaEps        1.3;
}

No MRF models present

No finite volume options present

Starting time loop

forces force:
    Not including porosity effects
surfaceFieldValue pInlet:
    total faces  = 120
    total area   = 0.00048


forces force write:
    sum of forces:
        pressure : (0 0 0)
        viscous  : (-2.05189e-10 0.000189504 8.38415e-24)
        porous   : (0 0 0)
    sum of moments:
        pressure : (0 0 0)
        viscous  : (-8.95303e-26 1.34112e-24 2.49242e-11)
        porous   : (0 0 0)

surfaceFieldValue pInlet write:
    average(inlet) of p = 0

Time = 1

smoothSolver:  Solving for Ux, Initial residual = 1, Final residual = 0.0328777, No Iterations 1
smoothSolver:  Solving for Uy, Initial residual = 1, Final residual = 0.0314791, No Iterations 1
GAMG:  Solving for p, Initial residual = 1, Final residual = 0.00752487, No Iterations 26
time step continuity errors : sum local = 0.0646502, global = -0.0141962, cumulative = -0.0141962
smoothSolver:  Solving for epsilon, Initial residual = 0.0980448, Final residual = 0.00452827, No Iterations 1
smoothSolver:  Solving for k, Initial residual = 1, Final residual = 0.0755355, No Iterations 1
ExecutionTime = 0.15 s  ClockTime = 0 s

forces force write:
    sum of forces:
        pressure : (-1.45649e-05 0.689808 7.45019e-19)
        viscous  : (8.93836e-08 0.000164688 -2.46653e-22)
        porous   : (0 0 0)
    sum of moments:
        pressure : (1.14502e-20 3.90383e-20 1.36579e-06)
        viscous  : (-9.25764e-24 -2.04882e-23 2.56238e-08)
        porous   : (0 0 0)

surfaceFieldValue pInlet write:
    average(inlet) of p = 1244.21

Time = 2

smoothSolver:  Solving for Ux, Initial residual = 0.322857, Final residual = 0.031702, No Iterations 1
smoothSolver:  Solving for Uy, Initial residual = 0.323622, Final residual = 0.0307067, No Iterations 1
GAMG:  Solving for p, Initial residual = 0.32103, Final residual = 0.00274369, No Iterations 16
time step continuity errors : sum local = 0.36895, global = -0.0825087, cumulative = -0.0967049
smoothSolver:  Solving for epsilon, Initial residual = 0.147079, Final residual = 0.00915405, No Iterations 1
smoothSolver:  Solving for k, Initial residual = 0.458801, Final residual = 0.00532407, No Iterations 2
ExecutionTime = 0.19 s  ClockTime = 0 s

forces force write:
    sum of forces:
        pressure : (-8.17017e-05 0.981092 9.51016e-19)
        viscous  : (1.04485e-06 -7.66891e-05 -9.46065e-21)
        porous   : (0 0 0)
    sum of moments:
        pressure : (1.29779e-20 5.4242e-20 -1.87793e-06)
        viscous  : (-3.1527e-22 -1.37902e-22 -3.52719e-08)
        porous   : (0 0 0)

surfaceFieldValue pInlet write:
    average(inlet) of p = 2003.32

Time = 3

smoothSolver:  Solving for Ux, Initial residual = 0.201104, Final residual = 0.0200712, No Iterations 1
smoothSolver:  Solving for Uy, Initial residual = 0.191706, Final residual = 0.0181419, No Iterations 1
GAMG:  Solving for p, Initial residual = 0.234315, Final residual = 0.00182006, No Iterations 7
time step continuity errors : sum local = 0.246247, global = 0.0603176, cumulative = -0.0363873
smoothSolver:  Solving for epsilon, Initial residual = 0.121284, Final residual = 0.0106217, No Iterations 1
smoothSolver:  Solving for k, Initial residual = 0.205763, Final residual = 0.00243281, No Iterations 2
ExecutionTime = 0.22 s  ClockTime = 0 s

forces force write:
    sum of forces:
        pressure : (-0.000158241 0.917412 7.38289e-19)
        viscous  : (2.09512e-06 -0.000144256 -1.24826e-21)
        porous   : (0 0 0)
    sum of moments:
        pressure : (8.72029e-21 5.0629e-20 1.64942e-05)
        viscous  : (-5.41902e-23 2.39595e-24 -8.26401e-08)
        porous   : (0 0 0)

surfaceFieldValue pInlet write:
    average(inlet) of p = 2026.12

Time = 4

smoothSolver:  Solving for Ux, Initial residual = 0.130739, Final residual = 0.0129381, No Iterations 1
smoothSolver:  Solving for Uy, Initial residual = 0.133817, Final residual = 0.012626, No Iterations 1
GAMG:  Solving for p, Initial residual = 0.168168, Final residual = 0.00161817, No Iterations 17
time step continuity errors : sum local = 0.21194, global = 0.0467118, cumulative = 0.0103245
smoothSolver:  Solving for epsilon, Initial residual = 0.0741545, Final residual = 0.0062144, No Iterations 1
smoothSolver:  Solving for k, Initial residual = 0.116191, Final residual = 0.0115031, No Iterations 1
ExecutionTime = 0.26 s  ClockTime = 0 s

forces force write:
    sum of forces:
        pressure : (-5.57718e-05 0.664906 3.23157e-19)
        viscous  : (2.50412e-06 -0.000134801 1.96168e-21)
        porous   : (0 0 0)
    sum of moments:
        pressure : (2.33979e-21 3.68497e-20 2.32336e-05)
        viscous  : (2.70501e-23 -2.84157e-23 -6.39733e-08)
        porous   : (0 0 0)

surfaceFieldValue pInlet write:
    average(inlet) of p = 1498.29

Time = 5

smoothSolver:  Solving for Ux, Initial residual = 0.0981681, Final residual = 0.00101612, No Iterations 2
smoothSolver:  Solving for Uy, Initial residual = 0.0878749, Final residual = 0.00834352, No Iterations 1
GAMG:  Solving for p, Initial residual = 0.1462, Final residual = 0.0012449, No Iterations 24
time step continuity errors : sum local = 0.12367, global = 0.0262012, cumulative = 0.0365256
smoothSolver:  Solving for epsilon, Initial residual = 0.0508216, Final residual = 0.00428064, No Iterations 1
smoothSolver:  Solving for k, Initial residual = 0.0864777, Final residual = 0.00812439, No Iterations 1
ExecutionTime = 0.31 s  ClockTime = 0 s

forces force write:
    sum of forces:
        pressure : (2.86562e-06 0.363375 -9.84013e-20)
        viscous  : (1.70375e-06 -9.30964e-05 4.29543e-21)
        porous   : (0 0 0)
    sum of moments:
        pressure : (-3.32085e-21 2.02594e-20 2.17569e-05)
        viscous  : (5.27677e-23 -1.26472e-22 -1.84066e-08)
        porous   : (0 0 0)

surfaceFieldValue pInlet write:
    average(inlet) of p = 668.967

Time = 6

smoothSolver:  Solving for Ux, Initial residual = 0.0697553, Final residual = 0.000739892, No Iterations 2
smoothSolver:  Solving for Uy, Initial residual = 0.0486173, Final residual = 0.0047648, No Iterations 1
GAMG:  Solving for p, Initial residual = 0.256491, Final residual = 0.00240205, No Iterations 24
time step continuity errors : sum local = 0.134964, global = 0.0283844, cumulative = 0.06491
smoothSolver:  Solving for epsilon, Initial residual = 0.0380714, Final residual = 0.00299603, No Iterations 1
smoothSolver:  Solving for k, Initial residual = 0.0658475, Final residual = 0.0062807, No Iterations 1
ExecutionTime = 0.37 s  ClockTime = 0 s

forces force write:
    sum of forces:
        pressure : (7.24425e-05 0.110067 -3.76521e-19)
        viscous  : (4.22173e-07 -5.16286e-05 3.15275e-21)
        porous   : (0 0 0)
    sum of moments:
        pressure : (-6.48849e-21 6.11254e-21 1.68678e-05)
        viscous  : (2.36158e-23 -1.10624e-22 4.14689e-08)
        porous   : (0 0 0)

surfaceFieldValue pInlet write:
    average(inlet) of p = -103.113

Time = 7

smoothSolver:  Solving for Ux, Initial residual = 0.0458705, Final residual = 0.000494907, No Iterations 2
smoothSolver:  Solving for Uy, Initial residual = 0.0232782, Final residual = 0.000252222, No Iterations 2
GAMG:  Solving for p, Initial residual = 0.428627, Final residual = 0.00405365, No Iterations 20
time step continuity errors : sum local = 0.179927, global = 0.039068, cumulative = 0.103978
smoothSolver:  Solving for epsilon, Initial residual = 0.0296062, Final residual = 0.0021927, No Iterations 1
smoothSolver:  Solving for k, Initial residual = 0.0514596, Final residual = 0.00481368, No Iterations 1
ExecutionTime = 0.41 s  ClockTime = 0 s

forces force write:
    sum of forces:
        pressure : (0.000129406 -0.0601507 -4.70991e-19)
        viscous  : (4.49178e-07 -2.20054e-05 1.87039e-21)
        porous   : (0 0 0)
    sum of moments:
        pressure : (-7.00808e-21 -3.56643e-21 1.15868e-05)
        viscous  : (-6.03956e-24 -7.20797e-23 4.62317e-08)
        porous   : (0 0 0)

surfaceFieldValue pInlet write:
    average(inlet) of p = -596.505

Time = 8

smoothSolver:  Solving for Ux, Initial residual = 0.0428528, Final residual = 0.000463321, No Iterations 2
smoothSolver:  Solving for Uy, Initial residual = 0.0314243, Final residual = 0.00296864, No Iterations 1
GAMG:  Solving for p, Initial residual = 0.293584, Final residual = 0.00265312, No Iterations 16
time step continuity errors : sum local = 0.17618, global = 0.0410997, cumulative = 0.145078
smoothSolver:  Solving for epsilon, Initial residual = 0.0249215, Final residual = 0.00180909, No Iterations 1
smoothSolver:  Solving for k, Initial residual = 0.0403831, Final residual = 0.00378515, No Iterations 1
ExecutionTime = 0.45 s  ClockTime = 0 s

forces force write:
    sum of forces:
        pressure : (0.000129435 -0.145603 -4.16254e-19)
        viscous  : (3.17008e-07 -1.28733e-05 -2.02386e-22)
        porous   : (0 0 0)
    sum of moments:
        pressure : (-5.6669e-21 -8.62667e-21 9.23596e-06)
        viscous  : (-2.9907e-23 -1.20454e-23 3.22777e-08)
        porous   : (0 0 0)

surfaceFieldValue pInlet write:
    average(inlet) of p = -748.384

Time = 9

smoothSolver:  Solving for Ux, Initial residual = 0.0457057, Final residual = 0.000482791, No Iterations 2
smoothSolver:  Solving for Uy, Initial residual = 0.0326825, Final residual = 0.00298368, No Iterations 1
GAMG:  Solving for p, Initial residual = 0.254574, Final residual = 0.00214605, No Iterations 13
time step continuity errors : sum local = 0.14941, global = -0.0273685, cumulative = 0.117709
smoothSolver:  Solving for epsilon, Initial residual = 0.0222, Final residual = 0.00157134, No Iterations 1
smoothSolver:  Solving for k, Initial residual = 0.0320587, Final residual = 0.003017, No Iterations 1
ExecutionTime = 0.49 s  ClockTime = 0 s

forces force write:
    sum of forces:
        pressure : (7.40119e-05 -0.169492 -2.8288e-19)
        viscous  : (2.6105e-07 -1.31477e-05 -3.11826e-21)
        porous   : (0 0 0)
    sum of moments:
        pressure : (-3.49193e-21 -1.02785e-20 8.77913e-06)
        viscous  : (-7.73103e-23 8.7497e-23 -1.89773e-08)
        porous   : (0 0 0)

surfaceFieldValue pInlet write:
    average(inlet) of p = -657.409

Time = 10

smoothSolver:  Solving for Ux, Initial residual = 0.0472351, Final residual = 0.000499585, No Iterations 2
smoothSolver:  Solving for Uy, Initial residual = 0.0298269, Final residual = 0.00271257, No Iterations 1
GAMG:  Solving for p, Initial residual = 0.257763, Final residual = 0.00247255, No Iterations 15
time step continuity errors : sum local = 0.148307, global = -0.0293441, cumulative = 0.0883651
smoothSolver:  Solving for epsilon, Initial residual = 0.0202482, Final residual = 0.00124049, No Iterations 1
smoothSolver:  Solving for k, Initial residual = 0.02595, Final residual = 0.00241422, No Iterations 1
ExecutionTime = 0.53 s  ClockTime = 0 s

forces force write:
    sum of forces:
        pressure : (2.16369e-05 -0.149076 -1.07758e-19)
        viscous  : (7.66339e-07 -1.42024e-05 -3.56938e-21)
        porous   : (0 0 0)
    sum of moments:
        pressure : (-1.00448e-21 -9.46497e-21 7.94591e-06)
        viscous  : (-5.49967e-23 8.51289e-23 -5.10154e-08)
        porous   : (0 0 0)

surfaceFieldValue pInlet write:
    average(inlet) of p = -375.802

Time = 11

smoothSolver:  Solving for Ux, Initial residual = 0.0451508, Final residual = 0.000482925, No Iterations 2
smoothSolver:  Solving for Uy, Initial residual = 0.0244403, Final residual = 0.00232596, No Iterations 1
GAMG:  Solving for p, Initial residual = 0.309359, Final residual = 0.00306006, No Iterations 16
time step continuity errors : sum local = 0.130517, global = -0.0268572, cumulative = 0.061508
smoothSolver:  Solving for epsilon, Initial residual = 0.0178897, Final residual = 0.000937011, No Iterations 1
smoothSolver:  Solving for k, Initial residual = 0.0220482, Final residual = 0.00198094, No Iterations 1
ExecutionTime = 0.57 s  ClockTime = 0 s

forces force write:
    sum of forces:
        pressure : (-1.74036e-05 -0.107461 5.76367e-20)
        viscous  : (4.75954e-07 -4.73988e-06 -4.63009e-21)
        porous   : (0 0 0)
    sum of moments:
        pressure : (1.20803e-21 -7.42409e-21 6.29834e-06)
        viscous  : (-5.50226e-23 1.46397e-22 -6.39255e-08)
        porous   : (0 0 0)

surfaceFieldValue pInlet write:
    average(inlet) of p = -43.6833

Time = 12

smoothSolver:  Solving for Ux, Initial residual = 0.0389962, Final residual = 0.000416653, No Iterations 2
smoothSolver:  Solving for Uy, Initial residual = 0.0203707, Final residual = 0.000212008, No Iterations 2
GAMG:  Solving for p, Initial residual = 0.478586, Final residual = 0.00390259, No Iterations 20
time step continuity errors : sum local = 0.090479, global = -0.018442, cumulative = 0.0430659
smoothSolver:  Solving for epsilon, Initial residual = 0.017708, Final residual = 0.000807752, No Iterations 1
smoothSolver:  Solving for k, Initial residual = 0.0196624, Final residual = 0.00172461, No Iterations 1
ExecutionTime = 0.61 s  ClockTime = 0 s

forces force write:
    sum of forces:
        pressure : (-1.49306e-05 -0.0599138 1.77464e-19)
        viscous  : (4.62486e-07 1.38909e-05 -4.15882e-21)
        porous   : (0 0 0)
    sum of moments:
        pressure : (2.74905e-21 -4.92306e-21 2.59683e-06)
        viscous  : (-4.32765e-23 1.07752e-22 -5.7126e-08)
        porous   : (0 0 0)

surfaceFieldValue pInlet write:
    average(inlet) of p = 228.03

Time = 13

smoothSolver:  Solving for Ux, Initial residual = 0.0335546, Final residual = 0.000352392, No Iterations 2
smoothSolver:  Solving for Uy, Initial residual = 0.0241177, Final residual = 0.0024034, No Iterations 1
GAMG:  Solving for p, Initial residual = 0.268206, Final residual = 0.00258447, No Iterations 18
time step continuity errors : sum local = 0.0914266, global = -0.0196889, cumulative = 0.023377
smoothSolver:  Solving for epsilon, Initial residual = 0.0189392, Final residual = 0.000915912, No Iterations 1
smoothSolver:  Solving for k, Initial residual = 0.0183945, Final residual = 0.00157613, No Iterations 1
ExecutionTime = 0.65 s  ClockTime = 0 s

forces force write:
    sum of forces:
        pressure : (-4.51757e-06 -0.0192578 2.31833e-19)
        viscous  : (1.84893e-07 4.0529e-05 -3.83681e-21)
        porous   : (0 0 0)
    sum of moments:
        pressure : (3.41729e-21 -2.63352e-21 -2.42571e-07)
        viscous  : (-4.48145e-23 8.68257e-23 -4.60891e-08)
        porous   : (0 0 0)

surfaceFieldValue pInlet write:
    average(inlet) of p = 367.638

Time = 14

smoothSolver:  Solving for Ux, Initial residual = 0.029209, Final residual = 0.000303544, No Iterations 2
smoothSolver:  Solving for Uy, Initial residual = 0.0274372, Final residual = 0.00265799, No Iterations 1
GAMG:  Solving for p, Initial residual = 0.205048, Final residual = 0.00204226, No Iterations 12
time step continuity errors : sum local = 0.08257, global = -0.0245848, cumulative = -0.00120776
smoothSolver:  Solving for epsilon, Initial residual = 0.0189799, Final residual = 0.000931079, No Iterations 1
smoothSolver:  Solving for k, Initial residual = 0.0175469, Final residual = 0.00148434, No Iterations 1
ExecutionTime = 0.69 s  ClockTime = 0 s

forces force write:
    sum of forces:
        pressure : (1.09142e-05 0.00984742 2.25518e-19)
        viscous  : (-2.5102e-08 7.24e-05 -2.97227e-21)
        porous   : (0 0 0)
    sum of moments:
        pressure : (3.30562e-21 -8.07826e-22 -1.37479e-06)
        viscous  : (-3.96426e-23 5.54406e-23 -3.57587e-08)
        porous   : (0 0 0)

surfaceFieldValue pInlet write:
    average(inlet) of p = 373.66

Time = 15

smoothSolver:  Solving for Ux, Initial residual = 0.0250892, Final residual = 0.000259379, No Iterations 2
smoothSolver:  Solving for Uy, Initial residual = 0.0247186, Final residual = 0.00235458, No Iterations 1
GAMG:  Solving for p, Initial residual = 0.189572, Final residual = 0.00155917, No Iterations 17
time step continuity errors : sum local = 0.0601618, global = 0.0105783, cumulative = 0.00937059
smoothSolver:  Solving for epsilon, Initial residual = 0.0179594, Final residual = 0.00089229, No Iterations 1
smoothSolver:  Solving for k, Initial residual = 0.0168679, Final residual = 0.00140723, No Iterations 1
ExecutionTime = 0.74 s  ClockTime = 0 s

forces force write:
    sum of forces:
        pressure : (4.34614e-05 0.0293614 1.78203e-19)
        viscous  : (-2.07624e-07 0.000105931 -1.83522e-21)
        porous   : (0 0 0)
    sum of moments:
        pressure : (2.67597e-21 6.31497e-22 -2.85408e-06)
        viscous  : (-2.94542e-23 2.37206e-23 -2.78378e-08)
        porous   : (0 0 0)

surfaceFieldValue pInlet write:
    average(inlet) of p = 292.604

Time = 16

smoothSolver:  Solving for Ux, Initial residual = 0.0204726, Final residual = 0.000210768, No Iterations 2
smoothSolver:  Solving for Uy, Initial residual = 0.0188227, Final residual = 0.00177382, No Iterations 1
GAMG:  Solving for p, Initial residual = 0.225709, Final residual = 0.00207691, No Iterations 17
time step continuity errors : sum local = 0.0665494, global = 0.0121684, cumulative = 0.021539
smoothSolver:  Solving for epsilon, Initial residual = 0.0169535, Final residual = 0.000785427, No Iterations 1
smoothSolver:  Solving for k, Initial residual = 0.0162364, Final residual = 0.00134761, No Iterations 1
ExecutionTime = 0.78 s  ClockTime = 0 s

forces force write:
    sum of forces:
        pressure : (7.30668e-05 0.0396673 1.05354e-19)
        viscous  : (-2.84838e-07 0.000136521 -3.17744e-22)
        porous   : (0 0 0)
    sum of moments:
        pressure : (1.71518e-21 1.65162e-21 -3.24768e-06)
        viscous  : (-1.23264e-23 -1.01437e-23 -2.36791e-08)
        porous   : (0 0 0)

surfaceFieldValue pInlet write:
    average(inlet) of p = 157.096

Time = 17

smoothSolver:  Solving for Ux, Initial residual = 0.0161949, Final residual = 0.000165902, No Iterations 2
smoothSolver:  Solving for Uy, Initial residual = 0.0129198, Final residual = 0.00123522, No Iterations 1
GAMG:  Solving for p, Initial residual = 0.313831, Final residual = 0.00297975, No Iterations 12
time step continuity errors : sum local = 0.0684749, global = 0.0116885, cumulative = 0.0332275
smoothSolver:  Solving for epsilon, Initial residual = 0.0154861, Final residual = 0.000762128, No Iterations 1
smoothSolver:  Solving for k, Initial residual = 0.0155519, Final residual = 0.00128207, No Iterations 1
ExecutionTime = 0.81 s  ClockTime = 0 s

forces force write:
    sum of forces:
        pressure : (9.08156e-05 0.0441997 2.97389e-20)
        viscous  : (-3.91213e-07 0.000160615 1.55226e-21)
        porous   : (0 0 0)
    sum of moments:
        pressure : (7.06241e-22 2.35951e-21 -2.5073e-06)
        viscous  : (1.25431e-23 -4.7002e-23 -1.86636e-08)
        porous   : (0 0 0)

surfaceFieldValue pInlet write:
    average(inlet) of p = 20.5254

Time = 18

smoothSolver:  Solving for Ux, Initial residual = 0.0134943, Final residual = 0.00134839, No Iterations 1
smoothSolver:  Solving for Uy, Initial residual = 0.0104031, Final residual = 0.00103682, No Iterations 1
GAMG:  Solving for p, Initial residual = 0.389282, Final residual = 0.00319602, No Iterations 16
time step continuity errors : sum local = 0.059166, global = 0.0117435, cumulative = 0.0449709
smoothSolver:  Solving for epsilon, Initial residual = 0.0144663, Final residual = 0.000691491, No Iterations 1
smoothSolver:  Solving for k, Initial residual = 0.0148282, Final residual = 0.00122471, No Iterations 1
ExecutionTime = 0.85 s  ClockTime = 0 s

forces force write:
    sum of forces:
        pressure : (0.000103337 0.0461809 -3.04706e-20)
        viscous  : (-4.19467e-07 0.00017603 3.62667e-21)
        porous   : (0 0 0)
    sum of moments:
        pressure : (-1.16833e-22 2.85545e-21 -1.45402e-06)
        viscous  : (4.5263e-23 -9.9021e-23 -1.45733e-08)
        porous   : (0 0 0)

surfaceFieldValue pInlet write:
    average(inlet) of p = -77.359

Time = 19

smoothSolver:  Solving for Ux, Initial residual = 0.0127772, Final residual = 0.000131338, No Iterations 2
smoothSolver:  Solving for Uy, Initial residual = 0.0118412, Final residual = 0.000122115, No Iterations 2
GAMG:  Solving for p, Initial residual = 0.286693, Final residual = 0.00231165, No Iterations 14
time step continuity errors : sum local = 0.0549473, global = 0.0119145, cumulative = 0.0568855
smoothSolver:  Solving for epsilon, Initial residual = 0.0132645, Final residual = 0.000667017, No Iterations 1
smoothSolver:  Solving for k, Initial residual = 0.0141694, Final residual = 0.00116856, No Iterations 1
ExecutionTime = 0.89 s  ClockTime = 1 s

forces force write:
    sum of forces:
        pressure : (0.000113041 0.0474677 -6.47996e-20)
        viscous  : (2.73962e-07 0.000178184 2.93671e-21)
        porous   : (0 0 0)
    sum of moments:
        pressure : (-6.08876e-22 3.17676e-21 -1.14796e-06)
        viscous  : (3.20247e-23 -1.15994e-22 -3.01509e-08)
        porous   : (0 0 0)

surfaceFieldValue pInlet write:
    average(inlet) of p = -117.438

Time = 20

smoothSolver:  Solving for Ux, Initial residual = 0.0126503, Final residual = 0.000131146, No Iterations 2
smoothSolver:  Solving for Uy, Initial residual = 0.0133323, Final residual = 0.00132966, No Iterations 1
GAMG:  Solving for p, Initial residual = 0.240146, Final residual = 0.00152248, No Iterations 9
time step continuity errors : sum local = 0.0382632, global = -0.00674778, cumulative = 0.0501377
smoothSolver:  Solving for epsilon, Initial residual = 0.012565, Final residual = 0.000628643, No Iterations 1
smoothSolver:  Solving for k, Initial residual = 0.0135455, Final residual = 0.00111384, No Iterations 1
ExecutionTime = 0.93 s  ClockTime = 1 s

forces force write:
    sum of forces:
        pressure : (9.58663e-05 0.0481753 -7.74836e-20)
        viscous  : (1.15151e-07 0.000164326 3.74285e-21)
        porous   : (0 0 0)
    sum of moments:
        pressure : (-8.16006e-22 3.32572e-21 7.94976e-07)
        viscous  : (4.51908e-23 -7.07123e-23 -2.26143e-08)
        porous   : (0 0 0)

surfaceFieldValue pInlet write:
    average(inlet) of p = -115.167

Time = 21

smoothSolver:  Solving for Ux, Initial residual = 0.0119577, Final residual = 0.00012337, No Iterations 2
smoothSolver:  Solving for Uy, Initial residual = 0.0127951, Final residual = 0.0012791, No Iterations 1
GAMG:  Solving for p, Initial residual = 0.214691, Final residual = 0.00192051, No Iterations 13
time step continuity errors : sum local = 0.0466138, global = -0.00754205, cumulative = 0.0425956
smoothSolver:  Solving for epsilon, Initial residual = 0.0118758, Final residual = 0.000594681, No Iterations 1
smoothSolver:  Solving for k, Initial residual = 0.0130374, Final residual = 0.00106763, No Iterations 1
ExecutionTime = 0.97 s  ClockTime = 1 s

forces force write:
    sum of forces:
        pressure : (7.38121e-05 0.0483088 -6.86326e-20)
        viscous  : (5.63649e-07 0.000142169 8.78845e-22)
        porous   : (0 0 0)
    sum of moments:
        pressure : (-7.33285e-22 3.29767e-21 2.01075e-06)
        viscous  : (-1.51128e-23 -6.49436e-23 -2.48597e-08)
        porous   : (0 0 0)

surfaceFieldValue pInlet write:
    average(inlet) of p = -74.7368

Time = 22

smoothSolver:  Solving for Ux, Initial residual = 0.0108821, Final residual = 0.00108811, No Iterations 1
smoothSolver:  Solving for Uy, Initial residual = 0.0105801, Final residual = 0.000110024, No Iterations 2
GAMG:  Solving for p, Initial residual = 0.207657, Final residual = 0.00176522, No Iterations 15
time step continuity errors : sum local = 0.0377763, global = -0.00646441, cumulative = 0.0361312
smoothSolver:  Solving for epsilon, Initial residual = 0.0113971, Final residual = 0.000568827, No Iterations 1
smoothSolver:  Solving for k, Initial residual = 0.0126075, Final residual = 0.00102751, No Iterations 1
ExecutionTime = 1.01 s  ClockTime = 1 s

forces force write:
    sum of forces:
        pressure : (5.03815e-05 0.0474142 -4.4441e-20)
        viscous  : (6.3636e-07 0.000116256 8.11338e-22)
        porous   : (0 0 0)
    sum of moments:
        pressure : (-4.36061e-22 3.09458e-21 3.03231e-06)
        viscous  : (-9.058e-24 -4.3551e-23 -2.53617e-08)
        porous   : (0 0 0)

surfaceFieldValue pInlet write:
    average(inlet) of p = -11.5478

Time = 23

smoothSolver:  Solving for Ux, Initial residual = 0.0101936, Final residual = 0.00100916, No Iterations 1
smoothSolver:  Solving for Uy, Initial residual = 0.00814634, Final residual = 8.60224e-05, No Iterations 2
GAMG:  Solving for p, Initial residual = 0.220679, Final residual = 0.00172576, No Iterations 16
time step continuity errors : sum local = 0.0294155, global = -0.00539493, cumulative = 0.0307363
smoothSolver:  Solving for epsilon, Initial residual = 0.0107842, Final residual = 0.000549227, No Iterations 1
smoothSolver:  Solving for k, Initial residual = 0.0121571, Final residual = 0.000990869, No Iterations 1
ExecutionTime = 1.05 s  ClockTime = 1 s

forces force write:
    sum of forces:
        pressure : (3.15976e-05 0.044748 -1.52883e-20)
        viscous  : (6.67998e-07 9.17239e-05 6.92563e-22)
        porous   : (0 0 0)
    sum of moments:
        pressure : (-5.45997e-23 2.72732e-21 3.46141e-06)
        viscous  : (-1.32919e-24 -2.63846e-23 -2.4312e-08)
        porous   : (0 0 0)

surfaceFieldValue pInlet write:
    average(inlet) of p = 50.5798

Time = 24

smoothSolver:  Solving for Ux, Initial residual = 0.00982632, Final residual = 0.000967579, No Iterations 1
smoothSolver:  Solving for Uy, Initial residual = 0.00716441, Final residual = 0.000715397, No Iterations 1
GAMG:  Solving for p, Initial residual = 0.237624, Final residual = 0.00220222, No Iterations 16
time step continuity errors : sum local = 0.0297925, global = -0.00565329, cumulative = 0.025083
smoothSolver:  Solving for epsilon, Initial residual = 0.0105761, Final residual = 0.000543336, No Iterations 1
smoothSolver:  Solving for k, Initial residual = 0.0117687, Final residual = 0.000957485, No Iterations 1
ExecutionTime = 1.09 s  ClockTime = 1 s

forces force write:
    sum of forces:
        pressure : (1.77194e-05 0.0401697 1.00669e-20)
        viscous  : (6.16567e-07 7.29146e-05 8.23989e-22)
        porous   : (0 0 0)
    sum of moments:
        pressure : (2.97232e-22 2.24116e-21 3.56045e-06)
        viscous  : (1.0238e-23 -1.82117e-23 -2.01895e-08)
        porous   : (0 0 0)

surfaceFieldValue pInlet write:
    average(inlet) of p = 94.0354

Time = 25

smoothSolver:  Solving for Ux, Initial residual = 0.00963761, Final residual = 0.000946838, No Iterations 1
smoothSolver:  Solving for Uy, Initial residual = 0.00722623, Final residual = 0.000700565, No Iterations 1
GAMG:  Solving for p, Initial residual = 0.207303, Final residual = 0.00172322, No Iterations 14
time step continuity errors : sum local = 0.0267595, global = -0.00532437, cumulative = 0.0197586
smoothSolver:  Solving for epsilon, Initial residual = 0.0101892, Final residual = 0.00052614, No Iterations 1
smoothSolver:  Solving for k, Initial residual = 0.0113618, Final residual = 0.000924268, No Iterations 1
ExecutionTime = 1.12 s  ClockTime = 1 s

forces force write:
    sum of forces:
        pressure : (9.06641e-06 0.0340625 2.79185e-20)
        viscous  : (5.25913e-07 6.05884e-05 2.60782e-22)
        porous   : (0 0 0)
    sum of moments:
        pressure : (5.6681e-22 1.69019e-21 3.49146e-06)
        viscous  : (2.13149e-24 -7.91597e-24 -1.70087e-08)
        porous   : (0 0 0)

surfaceFieldValue pInlet write:
    average(inlet) of p = 113.301

Time = 26

smoothSolver:  Solving for Ux, Initial residual = 0.00962561, Final residual = 0.000949287, No Iterations 1
smoothSolver:  Solving for Uy, Initial residual = 0.00710415, Final residual = 0.000675325, No Iterations 1
GAMG:  Solving for p, Initial residual = 0.203151, Final residual = 0.00199466, No Iterations 7
time step continuity errors : sum local = 0.0321876, global = 0.00748191, cumulative = 0.0272405
smoothSolver:  Solving for epsilon, Initial residual = 0.00987704, Final residual = 0.00051624, No Iterations 1
smoothSolver:  Solving for k, Initial residual = 0.0109671, Final residual = 0.00088681, No Iterations 1
ExecutionTime = 1.16 s  ClockTime = 1 s

forces force write:
    sum of forces:
        pressure : (1.38453e-05 0.0277418 3.90603e-20)
        viscous  : (4.89707e-07 5.48958e-05 -3.26865e-22)
        porous   : (0 0 0)
    sum of moments:
        pressure : (7.55473e-22 1.16704e-21 2.46351e-06)
        viscous  : (-6.70242e-24 4.60791e-24 -1.67289e-08)
        porous   : (0 0 0)

surfaceFieldValue pInlet write:
    average(inlet) of p = 114.509

Time = 27

smoothSolver:  Solving for Ux, Initial residual = 0.00974985, Final residual = 0.000969211, No Iterations 1
smoothSolver:  Solving for Uy, Initial residual = 0.00663619, Final residual = 0.000623574, No Iterations 1
GAMG:  Solving for p, Initial residual = 0.204478, Final residual = 0.00163597, No Iterations 13
time step continuity errors : sum local = 0.0256863, global = 0.00450642, cumulative = 0.031747
smoothSolver:  Solving for epsilon, Initial residual = 0.00947661, Final residual = 0.000500853, No Iterations 1
smoothSolver:  Solving for k, Initial residual = 0.0105785, Final residual = 0.000851434, No Iterations 1
ExecutionTime = 1.19 s  ClockTime = 1 s

forces force write:
    sum of forces:
        pressure : (9.421e-06 0.0217434 4.30331e-20)
        viscous  : (4.78866e-07 5.52101e-05 -6.33872e-22)
        porous   : (0 0 0)
    sum of moments:
        pressure : (8.45009e-22 7.18665e-22 2.80601e-06)
        viscous  : (-1.19376e-23 1.07355e-23 -1.71561e-08)
        porous   : (0 0 0)

surfaceFieldValue pInlet write:
    average(inlet) of p = 100.501

Time = 28

smoothSolver:  Solving for Ux, Initial residual = 0.00975403, Final residual = 0.000974597, No Iterations 1
smoothSolver:  Solving for Uy, Initial residual = 0.0061915, Final residual = 0.000583325, No Iterations 1
GAMG:  Solving for p, Initial residual = 0.207269, Final residual = 0.00166333, No Iterations 13
time step continuity errors : sum local = 0.0245615, global = 0.00428962, cumulative = 0.0360366
smoothSolver:  Solving for epsilon, Initial residual = 0.00910975, Final residual = 0.000484511, No Iterations 1
smoothSolver:  Solving for k, Initial residual = 0.0102228, Final residual = 0.00081724, No Iterations 1
ExecutionTime = 1.24 s  ClockTime = 1 s

forces force write:
    sum of forces:
        pressure : (4.24299e-06 0.0169116 4.12014e-20)
        viscous  : (4.89556e-07 5.92184e-05 -6.95737e-22)
        porous   : (0 0 0)
    sum of moments:
        pressure : (8.48693e-22 3.94534e-22 3.32391e-06)
        viscous  : (-1.345e-23 1.16155e-23 -1.83304e-08)
        porous   : (0 0 0)

surfaceFieldValue pInlet write:
    average(inlet) of p = 76.5984

Time = 29

smoothSolver:  Solving for Ux, Initial residual = 0.00944391, Final residual = 9.66867e-05, No Iterations 2
smoothSolver:  Solving for Uy, Initial residual = 0.00585755, Final residual = 0.00056387, No Iterations 1
GAMG:  Solving for p, Initial residual = 0.21055, Final residual = 0.00210526, No Iterations 12
time step continuity errors : sum local = 0.0280623, global = 0.00466302, cumulative = 0.0406996
smoothSolver:  Solving for epsilon, Initial residual = 0.00877307, Final residual = 0.000478589, No Iterations 1
smoothSolver:  Solving for k, Initial residual = 0.00989556, Final residual = 0.000788036, No Iterations 1
ExecutionTime = 1.28 s  ClockTime = 1 s

forces force write:
    sum of forces:
        pressure : (-1.61113e-06 0.0141421 3.66268e-20)
        viscous  : (5.38587e-07 6.5667e-05 -6.3702e-22)
        porous   : (0 0 0)
    sum of moments:
        pressure : (8.03185e-22 2.38713e-22 3.91547e-06)
        viscous  : (-1.2979e-23 9.45919e-24 -2.10557e-08)
        porous   : (0 0 0)

surfaceFieldValue pInlet write:
    average(inlet) of p = 52.3078

Time = 30

smoothSolver:  Solving for Ux, Initial residual = 0.00889249, Final residual = 9.12484e-05, No Iterations 2
smoothSolver:  Solving for Uy, Initial residual = 0.00558533, Final residual = 0.000548552, No Iterations 1
GAMG:  Solving for p, Initial residual = 0.209259, Final residual = 0.00162067, No Iterations 14
time step continuity errors : sum local = 0.0193039, global = 0.00342162, cumulative = 0.0441212
smoothSolver:  Solving for epsilon, Initial residual = 0.00841063, Final residual = 0.000453042, No Iterations 1
smoothSolver:  Solving for k, Initial residual = 0.00961353, Final residual = 0.00076098, No Iterations 1
ExecutionTime = 1.31 s  ClockTime = 1 s

forces force write:
    sum of forces:
        pressure : (-7.17912e-06 0.0136675 3.10182e-20)
        viscous  : (5.8309e-07 7.33739e-05 -5.33471e-22)
        porous   : (0 0 0)
    sum of moments:
        pressure : (7.31567e-22 2.5416e-22 4.3887e-06)
        viscous  : (-1.18104e-23 6.28108e-24 -2.33465e-08)
        porous   : (0 0 0)

surfaceFieldValue pInlet write:
    average(inlet) of p = 32.2639

Time = 31

smoothSolver:  Solving for Ux, Initial residual = 0.00827899, Final residual = 8.47854e-05, No Iterations 2
smoothSolver:  Solving for Uy, Initial residual = 0.0054684, Final residual = 0.000542744, No Iterations 1
GAMG:  Solving for p, Initial residual = 0.184289, Final residual = 0.00174705, No Iterations 12
time step continuity errors : sum local = 0.0203605, global = 0.00374428, cumulative = 0.0478655
smoothSolver:  Solving for epsilon, Initial residual = 0.0081138, Final residual = 0.000447043, No Iterations 1
smoothSolver:  Solving for k, Initial residual = 0.00937714, Final residual = 0.000739334, No Iterations 1
ExecutionTime = 1.35 s  ClockTime = 1 s

forces force write:
    sum of forces:
        pressure : (-1.07755e-05 0.0154738 2.63997e-20)
        viscous  : (5.92172e-07 8.1287e-05 -4.06259e-22)
        porous   : (0 0 0)
    sum of moments:
        pressure : (6.6285e-22 4.25174e-22 4.6269e-06)
        viscous  : (-1.01593e-23 2.70369e-24 -2.48863e-08)
        porous   : (0 0 0)

surfaceFieldValue pInlet write:
    average(inlet) of p = 21.1312

Time = 32

smoothSolver:  Solving for Ux, Initial residual = 0.00772118, Final residual = 7.87449e-05, No Iterations 2
smoothSolver:  Solving for Uy, Initial residual = 0.0054372, Final residual = 0.000541834, No Iterations 1
GAMG:  Solving for p, Initial residual = 0.147379, Final residual = 0.00103657, No Iterations 10
time step continuity errors : sum local = 0.0127024, global = 0.00279273, cumulative = 0.0506582
smoothSolver:  Solving for epsilon, Initial residual = 0.00784699, Final residual = 0.000436247, No Iterations 1
smoothSolver:  Solving for k, Initial residual = 0.00918406, Final residual = 0.000721121, No Iterations 1
ExecutionTime = 1.38 s  ClockTime = 1 s

forces force write:
    sum of forces:
        pressure : (-1.36587e-05 0.0188616 2.27657e-20)
        viscous  : (5.90938e-07 8.85624e-05 -2.54744e-22)
        porous   : (0 0 0)
    sum of moments:
        pressure : (6.00244e-22 7.00751e-22 4.74238e-06)
        viscous  : (-8.10606e-24 -1.34114e-24 -2.5393e-08)
        porous   : (0 0 0)

surfaceFieldValue pInlet write:
    average(inlet) of p = 17.7068

Time = 33

smoothSolver:  Solving for Ux, Initial residual = 0.00725237, Final residual = 0.000723554, No Iterations 1
smoothSolver:  Solving for Uy, Initial residual = 0.00537852, Final residual = 0.000535533, No Iterations 1
GAMG:  Solving for p, Initial residual = 0.131002, Final residual = 0.0010306, No Iterations 9
time step continuity errors : sum local = 0.0126661, global = -0.00308648, cumulative = 0.0475718
smoothSolver:  Solving for epsilon, Initial residual = 0.00761846, Final residual = 0.00042719, No Iterations 1
smoothSolver:  Solving for k, Initial residual = 0.00902305, Final residual = 0.000706412, No Iterations 1
ExecutionTime = 1.42 s  ClockTime = 1 s

forces force write:
    sum of forces:
        pressure : (-1.43585e-05 0.0228708 1.91386e-20)
        viscous  : (5.54205e-07 9.45133e-05 -6.62755e-23)
        porous   : (0 0 0)
    sum of moments:
        pressure : (5.34589e-22 1.01761e-21 4.65195e-06)
        viscous  : (-5.49686e-24 -5.88731e-24 -2.44792e-08)
        porous   : (0 0 0)

surfaceFieldValue pInlet write:
    average(inlet) of p = 17.8996

Time = 34

smoothSolver:  Solving for Ux, Initial residual = 0.00689357, Final residual = 0.000686354, No Iterations 1
smoothSolver:  Solving for Uy, Initial residual = 0.00524225, Final residual = 0.000521055, No Iterations 1
GAMG:  Solving for p, Initial residual = 0.134069, Final residual = 0.00106429, No Iterations 13
time step continuity errors : sum local = 0.0128164, global = -0.00245299, cumulative = 0.0451188
smoothSolver:  Solving for epsilon, Initial residual = 0.00738238, Final residual = 0.000416438, No Iterations 1
smoothSolver:  Solving for k, Initial residual = 0.00886625, Final residual = 0.000692953, No Iterations 1
ExecutionTime = 1.45 s  ClockTime = 1 s

forces force write:
    sum of forces:
        pressure : (-1.09175e-05 0.0272029 1.71204e-20)
        viscous  : (5.09801e-07 9.86706e-05 1.23451e-22)
        porous   : (0 0 0)
    sum of moments:
        pressure : (4.89998e-22 1.34425e-21 4.10503e-06)
        viscous  : (-2.71863e-24 -1.02149e-23 -2.2687e-08)
        porous   : (0 0 0)

surfaceFieldValue pInlet write:
    average(inlet) of p = 24.1756

Time = 35

smoothSolver:  Solving for Ux, Initial residual = 0.00657906, Final residual = 0.000652984, No Iterations 1
smoothSolver:  Solving for Uy, Initial residual = 0.00506068, Final residual = 0.000501695, No Iterations 1
GAMG:  Solving for p, Initial residual = 0.145498, Final residual = 0.00130532, No Iterations 10
time step continuity errors : sum local = 0.0149017, global = -0.00244788, cumulative = 0.0426709
smoothSolver:  Solving for epsilon, Initial residual = 0.00717321, Final residual = 0.000409618, No Iterations 1
smoothSolver:  Solving for k, Initial residual = 0.00872462, Final residual = 0.000680766, No Iterations 1
ExecutionTime = 1.48 s  ClockTime = 1 s

forces force write:
    sum of forces:
        pressure : (-7.09624e-06 0.0311169 1.60466e-20)
        viscous  : (4.67954e-07 0.000100833 3.38937e-22)
        porous   : (0 0 0)
    sum of moments:
        pressure : (4.59509e-22 1.63235e-21 3.52084e-06)
        viscous  : (5.59017e-25 -1.45085e-23 -2.04316e-08)
        porous   : (0 0 0)

surfaceFieldValue pInlet write:
    average(inlet) of p = 33.3

Time = 36

smoothSolver:  Solving for Ux, Initial residual = 0.00627618, Final residual = 0.000620799, No Iterations 1
smoothSolver:  Solving for Uy, Initial residual = 0.00488819, Final residual = 0.000483074, No Iterations 1
GAMG:  Solving for p, Initial residual = 0.157239, Final residual = 0.00132542, No Iterations 14
time step continuity errors : sum local = 0.0140802, global = -0.00248162, cumulative = 0.0401893
smoothSolver:  Solving for epsilon, Initial residual = 0.00699569, Final residual = 0.000402857, No Iterations 1
smoothSolver:  Solving for k, Initial residual = 0.00858514, Final residual = 0.000668146, No Iterations 1
ExecutionTime = 1.53 s  ClockTime = 1 s

forces force write:
    sum of forces:
        pressure : (-2.96553e-06 0.0341312 1.55193e-20)
        viscous  : (4.43533e-07 0.000101005 5.53746e-22)
        porous   : (0 0 0)
    sum of moments:
        pressure : (4.39398e-22 1.85079e-21 2.97252e-06)
        viscous  : (3.99899e-24 -1.85096e-23 -1.82886e-08)
        porous   : (0 0 0)

surfaceFieldValue pInlet write:
    average(inlet) of p = 42.6703

Time = 37

smoothSolver:  Solving for Ux, Initial residual = 0.00600959, Final residual = 0.000592322, No Iterations 1
smoothSolver:  Solving for Uy, Initial residual = 0.00481118, Final residual = 0.000474269, No Iterations 1
GAMG:  Solving for p, Initial residual = 0.165307, Final residual = 0.00129581, No Iterations 14
time step continuity errors : sum local = 0.0127477, global = -0.00234249, cumulative = 0.0378468
smoothSolver:  Solving for epsilon, Initial residual = 0.00682981, Final residual = 0.000394642, No Iterations 1
smoothSolver:  Solving for k, Initial residual = 0.00843507, Final residual = 0.000657802, No Iterations 1
ExecutionTime = 1.57 s  ClockTime = 1 s

forces force write:
    sum of forces:
        pressure : (1.03175e-06 0.0360131 1.5189e-20)
        viscous  : (4.38975e-07 9.9406e-05 7.54248e-22)
        porous   : (0 0 0)
    sum of moments:
        pressure : (4.26014e-22 1.98556e-21 2.48895e-06)
        viscous  : (7.33468e-24 -2.21953e-23 -1.65159e-08)
        porous   : (0 0 0)

surfaceFieldValue pInlet write:
    average(inlet) of p = 50.3072

Time = 38

smoothSolver:  Solving for Ux, Initial residual = 0.00588879, Final residual = 0.000579676, No Iterations 1
smoothSolver:  Solving for Uy, Initial residual = 0.00482801, Final residual = 0.000475781, No Iterations 1
GAMG:  Solving for p, Initial residual = 0.156861, Final residual = 0.0015313, No Iterations 10
time step continuity errors : sum local = 0.0148447, global = -0.00308878, cumulative = 0.034758
smoothSolver:  Solving for epsilon, Initial residual = 0.00663519, Final residual = 0.000391701, No Iterations 1
smoothSolver:  Solving for k, Initial residual = 0.0082974, Final residual = 0.000645289, No Iterations 1
ExecutionTime = 1.6 s  ClockTime = 1 s

forces force write:
    sum of forces:
        pressure : (4.25669e-06 0.0366849 1.46648e-20)
        viscous  : (4.63967e-07 9.64734e-05 8.77311e-22)
        porous   : (0 0 0)
    sum of moments:
        pressure : (4.14464e-22 2.03397e-21 2.09654e-06)
        viscous  : (9.58654e-24 -2.52571e-23 -1.51503e-08)
        porous   : (0 0 0)

surfaceFieldValue pInlet write:
    average(inlet) of p = 54.5194

Time = 39

smoothSolver:  Solving for Ux, Initial residual = 0.00588017, Final residual = 0.00057955, No Iterations 1
smoothSolver:  Solving for Uy, Initial residual = 0.00484096, Final residual = 0.000476777, No Iterations 1
GAMG:  Solving for p, Initial residual = 0.141485, Final residual = 0.0011546, No Iterations 8
time step continuity errors : sum local = 0.0112509, global = -0.00308403, cumulative = 0.031674
smoothSolver:  Solving for epsilon, Initial residual = 0.00648827, Final residual = 0.000386898, No Iterations 1
smoothSolver:  Solving for k, Initial residual = 0.00815997, Final residual = 0.000633128, No Iterations 1
ExecutionTime = 1.63 s  ClockTime = 1 s

forces force write:
    sum of forces:
        pressure : (7.47054e-06 0.0364199 1.44957e-20)
        viscous  : (5.09658e-07 9.27798e-05 9.1017e-22)
        porous   : (0 0 0)
    sum of moments:
        pressure : (4.11793e-22 2.01253e-21 1.72705e-06)
        viscous  : (1.04707e-23 -2.69353e-23 -1.44956e-08)
        porous   : (0 0 0)

surfaceFieldValue pInlet write:
    average(inlet) of p = 56.4907

Time = 40

smoothSolver:  Solving for Ux, Initial residual = 0.00591397, Final residual = 0.000584152, No Iterations 1
smoothSolver:  Solving for Uy, Initial residual = 0.00479785, Final residual = 0.000471981, No Iterations 1
GAMG:  Solving for p, Initial residual = 0.12502, Final residual = 0.00105733, No Iterations 7
time step continuity errors : sum local = 0.0102575, global = 0.00217996, cumulative = 0.033854
smoothSolver:  Solving for epsilon, Initial residual = 0.00636771, Final residual = 0.000382497, No Iterations 1
smoothSolver:  Solving for k, Initial residual = 0.00802216, Final residual = 0.000621095, No Iterations 1
ExecutionTime = 1.66 s  ClockTime = 1 s

forces force write:
    sum of forces:
        pressure : (1.04542e-05 0.0355037 1.50485e-20)
        viscous  : (5.47809e-07 8.89022e-05 8.56926e-22)
        porous   : (0 0 0)
    sum of moments:
        pressure : (4.22276e-22 1.94011e-21 1.37784e-06)
        viscous  : (9.91961e-24 -2.59199e-23 -1.3977e-08)
        porous   : (0 0 0)

surfaceFieldValue pInlet write:
    average(inlet) of p = 57.2428

Time = 41

smoothSolver:  Solving for Ux, Initial residual = 0.00593828, Final residual = 0.000588365, No Iterations 1
smoothSolver:  Solving for Uy, Initial residual = 0.004712, Final residual = 0.000462868, No Iterations 1
GAMG:  Solving for p, Initial residual = 0.11013, Final residual = 0.000860001, No Iterations 7
time step continuity errors : sum local = 0.00829447, global = 0.00158107, cumulative = 0.035435
smoothSolver:  Solving for epsilon, Initial residual = 0.00624711, Final residual = 0.000378794, No Iterations 1
smoothSolver:  Solving for k, Initial residual = 0.0078802, Final residual = 0.000610118, No Iterations 1
ExecutionTime = 1.69 s  ClockTime = 1 s

forces force write:
    sum of forces:
        pressure : (1.21675e-05 0.0342053 1.6247e-20)
        viscous  : (5.9339e-07 8.5338e-05 7.70166e-22)
        porous   : (0 0 0)
    sum of moments:
        pressure : (4.44133e-22 1.8367e-21 1.16851e-06)
        viscous  : (8.6515e-24 -2.34737e-23 -1.39214e-08)
        porous   : (0 0 0)

surfaceFieldValue pInlet write:
    average(inlet) of p = 57.1992

Time = 42

smoothSolver:  Solving for Ux, Initial residual = 0.0059257, Final residual = 0.00058859, No Iterations 1
smoothSolver:  Solving for Uy, Initial residual = 0.00459203, Final residual = 0.000450113, No Iterations 1
GAMG:  Solving for p, Initial residual = 0.100063, Final residual = 0.000988747, No Iterations 8
time step continuity errors : sum local = 0.00949198, global = 0.00145002, cumulative = 0.036885
smoothSolver:  Solving for epsilon, Initial residual = 0.00614768, Final residual = 0.000377248, No Iterations 1
smoothSolver:  Solving for k, Initial residual = 0.00775841, Final residual = 0.000599968, No Iterations 1
ExecutionTime = 1.72 s  ClockTime = 1 s

forces force write:
    sum of forces:
        pressure : (1.21005e-05 0.0326636 1.74076e-20)
        viscous  : (6.32442e-07 8.24705e-05 6.89154e-22)
        porous   : (0 0 0)
    sum of moments:
        pressure : (4.67412e-22 1.7166e-21 1.16394e-06)
        viscous  : (7.25008e-24 -1.98952e-23 -1.40119e-08)
        porous   : (0 0 0)

surfaceFieldValue pInlet write:
    average(inlet) of p = 55.4142

Time = 43

smoothSolver:  Solving for Ux, Initial residual = 0.00587948, Final residual = 0.000585066, No Iterations 1
smoothSolver:  Solving for Uy, Initial residual = 0.00442936, Final residual = 0.000433542, No Iterations 1
GAMG:  Solving for p, Initial residual = 0.0947685, Final residual = 0.000918317, No Iterations 12
time step continuity errors : sum local = 0.00871566, global = 0.0013515, cumulative = 0.0382365
smoothSolver:  Solving for epsilon, Initial residual = 0.00605999, Final residual = 0.000373613, No Iterations 1
smoothSolver:  Solving for k, Initial residual = 0.00763681, Final residual = 0.000590458, No Iterations 1
ExecutionTime = 1.76 s  ClockTime = 1 s

forces force write:
    sum of forces:
        pressure : (1.09408e-05 0.0310728 1.84582e-20)
        viscous  : (6.57357e-07 8.0479e-05 4.39055e-22)
        porous   : (0 0 0)
    sum of moments:
        pressure : (4.90196e-22 1.595e-21 1.23109e-06)
        viscous  : (3.49956e-24 -1.54816e-23 -1.40095e-08)
        porous   : (0 0 0)

surfaceFieldValue pInlet write:
    average(inlet) of p = 52.327

Time = 44

smoothSolver:  Solving for Ux, Initial residual = 0.00580455, Final residual = 0.000578624, No Iterations 1
smoothSolver:  Solving for Uy, Initial residual = 0.00424266, Final residual = 0.00041513, No Iterations 1
GAMG:  Solving for p, Initial residual = 0.093176, Final residual = 0.00074305, No Iterations 14
time step continuity errors : sum local = 0.00695392, global = 0.00115864, cumulative = 0.0393952
smoothSolver:  Solving for epsilon, Initial residual = 0.00598466, Final residual = 0.000369016, No Iterations 1
smoothSolver:  Solving for k, Initial residual = 0.00752008, Final residual = 0.000580287, No Iterations 1
ExecutionTime = 1.8 s  ClockTime = 1 s

forces force write:
    sum of forces:
        pressure : (8.93559e-06 0.0296214 1.94551e-20)
        viscous  : (6.72931e-07 7.93383e-05 4.0436e-22)
        porous   : (0 0 0)
    sum of moments:
        pressure : (5.12128e-22 1.48539e-21 1.34829e-06)
        viscous  : (2.68952e-24 -1.28574e-23 -1.39989e-08)
        porous   : (0 0 0)

surfaceFieldValue pInlet write:
    average(inlet) of p = 48.8241

Time = 45

smoothSolver:  Solving for Ux, Initial residual = 0.00571514, Final residual = 0.000570646, No Iterations 1
smoothSolver:  Solving for Uy, Initial residual = 0.00406346, Final residual = 0.000397301, No Iterations 1
GAMG:  Solving for p, Initial residual = 0.0928342, Final residual = 0.000880187, No Iterations 12
time step continuity errors : sum local = 0.00811952, global = 0.0013794, cumulative = 0.0407746
smoothSolver:  Solving for epsilon, Initial residual = 0.00589787, Final residual = 0.000367413, No Iterations 1
smoothSolver:  Solving for k, Initial residual = 0.00742923, Final residual = 0.000572258, No Iterations 1
ExecutionTime = 1.84 s  ClockTime = 1 s

forces force write:
    sum of forces:
        pressure : (6.66335e-06 0.0284904 2.05756e-20)
        viscous  : (6.84586e-07 7.89909e-05 2.86358e-22)
        porous   : (0 0 0)
    sum of moments:
        pressure : (5.34575e-22 1.3997e-21 1.48272e-06)
        viscous  : (8.09856e-25 -1.03546e-23 -1.38955e-08)
        porous   : (0 0 0)

surfaceFieldValue pInlet write:
    average(inlet) of p = 46.0956

Time = 46

smoothSolver:  Solving for Ux, Initial residual = 0.00562717, Final residual = 0.000562519, No Iterations 1
smoothSolver:  Solving for Uy, Initial residual = 0.00396422, Final residual = 0.000387397, No Iterations 1
GAMG:  Solving for p, Initial residual = 0.0879963, Final residual = 0.000849314, No Iterations 10
time step continuity errors : sum local = 0.00791788, global = 0.00143155, cumulative = 0.0422061
smoothSolver:  Solving for epsilon, Initial residual = 0.00580101, Final residual = 0.000365437, No Iterations 1
smoothSolver:  Solving for k, Initial residual = 0.00734234, Final residual = 0.000564521, No Iterations 1
ExecutionTime = 1.87 s  ClockTime = 1 s

forces force write:
    sum of forces:
        pressure : (4.40387e-06 0.0277424 2.16681e-20)
        viscous  : (6.73992e-07 7.93109e-05 1.20024e-22)
        porous   : (0 0 0)
    sum of moments:
        pressure : (5.54856e-22 1.34307e-21 1.61792e-06)
        viscous  : (-1.65734e-24 -8.28474e-24 -1.36892e-08)
        porous   : (0 0 0)

surfaceFieldValue pInlet write:
    average(inlet) of p = 44.3381

Time = 47

smoothSolver:  Solving for Ux, Initial residual = 0.00554143, Final residual = 0.000554121, No Iterations 1
smoothSolver:  Solving for Uy, Initial residual = 0.00395887, Final residual = 0.000387853, No Iterations 1
GAMG:  Solving for p, Initial residual = 0.081007, Final residual = 0.000600648, No Iterations 8
time step continuity errors : sum local = 0.00571518, global = 0.00133246, cumulative = 0.0435386
smoothSolver:  Solving for epsilon, Initial residual = 0.00572452, Final residual = 0.000362154, No Iterations 1
smoothSolver:  Solving for k, Initial residual = 0.00725714, Final residual = 0.00055714, No Iterations 1
ExecutionTime = 1.9 s  ClockTime = 2 s

forces force write:
    sum of forces:
        pressure : (2.10972e-06 0.0273799 2.25341e-20)
        viscous  : (6.73462e-07 8.01088e-05 1.33557e-22)
        porous   : (0 0 0)
    sum of moments:
        pressure : (5.69951e-22 1.31627e-21 1.75485e-06)
        viscous  : (-1.6326e-24 -7.75436e-24 -1.33891e-08)
        porous   : (0 0 0)

surfaceFieldValue pInlet write:
    average(inlet) of p = 43.4441

Time = 48

smoothSolver:  Solving for Ux, Initial residual = 0.00545201, Final residual = 0.000544934, No Iterations 1
smoothSolver:  Solving for Uy, Initial residual = 0.00396287, Final residual = 0.000388969, No Iterations 1
GAMG:  Solving for p, Initial residual = 0.0736824, Final residual = 0.000696717, No Iterations 5
time step continuity errors : sum local = 0.00671503, global = -0.00117529, cumulative = 0.0423633
smoothSolver:  Solving for epsilon, Initial residual = 0.00565985, Final residual = 0.000359557, No Iterations 1
smoothSolver:  Solving for k, Initial residual = 0.00718032, Final residual = 0.000550784, No Iterations 1
ExecutionTime = 1.93 s  ClockTime = 2 s

forces force write:
    sum of forces:
        pressure : (-1.61125e-07 0.0273497 2.29659e-20)
        viscous  : (6.61913e-07 8.11826e-05 1.32058e-22)
        porous   : (0 0 0)
    sum of moments:
        pressure : (5.76983e-22 1.31625e-21 1.90399e-06)
        viscous  : (-1.76106e-24 -7.6195e-24 -1.30698e-08)
        porous   : (0 0 0)

surfaceFieldValue pInlet write:
    average(inlet) of p = 43.057

Time = 49

smoothSolver:  Solving for Ux, Initial residual = 0.0053517, Final residual = 0.000534948, No Iterations 1
smoothSolver:  Solving for Uy, Initial residual = 0.00395138, Final residual = 0.000388214, No Iterations 1
GAMG:  Solving for p, Initial residual = 0.0656892, Final residual = 0.000385109, No Iterations 6
time step continuity errors : sum local = 0.00373842, global = 0.00052642, cumulative = 0.0428897
smoothSolver:  Solving for epsilon, Initial residual = 0.00559245, Final residual = 0.000356868, No Iterations 1
smoothSolver:  Solving for k, Initial residual = 0.00710207, Final residual = 0.000544826, No Iterations 1
ExecutionTime = 1.97 s  ClockTime = 2 s

forces force write:
    sum of forces:
        pressure : (-1.81217e-06 0.0276176 2.28834e-20)
        viscous  : (6.53784e-07 8.23699e-05 8.11083e-23)
        porous   : (0 0 0)
    sum of moments:
        pressure : (5.75097e-22 1.3403e-21 2.02582e-06)
        viscous  : (-2.51776e-24 -7.72221e-24 -1.27396e-08)
        porous   : (0 0 0)

surfaceFieldValue pInlet write:
    average(inlet) of p = 42.923

Time = 50

smoothSolver:  Solving for Ux, Initial residual = 0.00524108, Final residual = 0.000523885, No Iterations 1
smoothSolver:  Solving for Uy, Initial residual = 0.00391892, Final residual = 0.000385171, No Iterations 1
GAMG:  Solving for p, Initial residual = 0.0583062, Final residual = 0.000526285, No Iterations 6
time step continuity errors : sum local = 0.00512702, global = -0.000757553, cumulative = 0.0421322
smoothSolver:  Solving for epsilon, Initial residual = 0.00552654, Final residual = 0.000355502, No Iterations 1
smoothSolver:  Solving for k, Initial residual = 0.00702638, Final residual = 0.00053917, No Iterations 1
ExecutionTime = 2 s  ClockTime = 2 s

forces force write:
    sum of forces:
        pressure : (-2.77423e-06 0.0281559 2.25589e-20)
        viscous  : (6.46646e-07 8.35439e-05 1.80213e-22)
        porous   : (0 0 0)
    sum of moments:
        pressure : (5.68252e-22 1.38445e-21 2.07914e-06)
        viscous  : (-1.20052e-24 -8.92119e-24 -1.23924e-08)
        porous   : (0 0 0)

surfaceFieldValue pInlet write:
    average(inlet) of p = 43.533

Time = 51

smoothSolver:  Solving for Ux, Initial residual = 0.00512819, Final residual = 0.000512546, No Iterations 1
smoothSolver:  Solving for Uy, Initial residual = 0.00387551, Final residual = 0.000380642, No Iterations 1
GAMG:  Solving for p, Initial residual = 0.0541398, Final residual = 0.000424309, No Iterations 10
time step continuity errors : sum local = 0.00411581, global = -0.000831179, cumulative = 0.041301
smoothSolver:  Solving for epsilon, Initial residual = 0.00547279, Final residual = 0.000353609, No Iterations 1
smoothSolver:  Solving for k, Initial residual = 0.00696675, Final residual = 0.000533441, No Iterations 1
ExecutionTime = 2.03 s  ClockTime = 2 s

forces force write:
    sum of forces:
        pressure : (-2.80726e-06 0.0288749 2.20399e-20)
        viscous  : (6.43788e-07 8.45453e-05 2.5543e-22)
        porous   : (0 0 0)
    sum of moments:
        pressure : (5.57542e-22 1.44177e-21 2.07027e-06)
        viscous  : (-1.59586e-25 -1.01642e-23 -1.20751e-08)
        porous   : (0 0 0)

surfaceFieldValue pInlet write:
    average(inlet) of p = 44.6611

Time = 52

smoothSolver:  Solving for Ux, Initial residual = 0.00502418, Final residual = 0.000501567, No Iterations 1
smoothSolver:  Solving for Uy, Initial residual = 0.00382667, Final residual = 0.000375419, No Iterations 1
GAMG:  Solving for p, Initial residual = 0.0530835, Final residual = 0.000507756, No Iterations 10
time step continuity errors : sum local = 0.00487682, global = -0.00105824, cumulative = 0.0402428
smoothSolver:  Solving for epsilon, Initial residual = 0.00540518, Final residual = 0.00034932, No Iterations 1
smoothSolver:  Solving for k, Initial residual = 0.00688656, Final residual = 0.000528434, No Iterations 1
ExecutionTime = 2.07 s  ClockTime = 2 s

forces force write:
    sum of forces:
        pressure : (-2.63993e-06 0.029653 2.13536e-20)
        viscous  : (6.44202e-07 8.52714e-05 2.55188e-22)
        porous   : (0 0 0)
    sum of moments:
        pressure : (5.43891e-22 1.50349e-21 2.0394e-06)
        viscous  : (-7.76433e-26 -1.10442e-23 -1.17382e-08)
        porous   : (0 0 0)

surfaceFieldValue pInlet write:
    average(inlet) of p = 45.9348

Time = 53

smoothSolver:  Solving for Ux, Initial residual = 0.00493249, Final residual = 0.000492091, No Iterations 1
smoothSolver:  Solving for Uy, Initial residual = 0.00377654, Final residual = 0.000370405, No Iterations 1
GAMG:  Solving for p, Initial residual = 0.0545481, Final residual = 0.000536158, No Iterations 10
time step continuity errors : sum local = 0.00509263, global = -0.00117397, cumulative = 0.0390688
smoothSolver:  Solving for epsilon, Initial residual = 0.00535898, Final residual = 0.000347183, No Iterations 1
smoothSolver:  Solving for k, Initial residual = 0.00681577, Final residual = 0.000522374, No Iterations 1
ExecutionTime = 2.11 s  ClockTime = 2 s

forces force write:
    sum of forces:
        pressure : (-2.33345e-06 0.0304021 2.05886e-20)
        viscous  : (6.52271e-07 8.56896e-05 2.59141e-22)
        porous   : (0 0 0)
    sum of moments:
        pressure : (5.2907e-22 1.56286e-21 1.99094e-06)
        viscous  : (-5.73911e-26 -1.29364e-23 -1.15274e-08)
        porous   : (0 0 0)

surfaceFieldValue pInlet write:
    average(inlet) of p = 47.1535

Time = 54

smoothSolver:  Solving for Ux, Initial residual = 0.00486074, Final residual = 0.000484909, No Iterations 1
smoothSolver:  Solving for Uy, Initial residual = 0.00373351, Final residual = 0.000365896, No Iterations 1
GAMG:  Solving for p, Initial residual = 0.0568519, Final residual = 0.000528621, No Iterations 10
time step continuity errors : sum local = 0.0049714, global = -0.00121033, cumulative = 0.0378584
smoothSolver:  Solving for epsilon, Initial residual = 0.00531175, Final residual = 0.0003465, No Iterations 1
smoothSolver:  Solving for k, Initial residual = 0.00673884, Final residual = 0.000516679, No Iterations 1
ExecutionTime = 2.15 s  ClockTime = 2 s

forces force write:
    sum of forces:
        pressure : (-1.99242e-06 0.031049 1.98397e-20)
        viscous  : (6.64984e-07 8.57892e-05 5.05862e-22)
        porous   : (0 0 0)
    sum of moments:
        pressure : (5.14871e-22 1.61435e-21 1.93311e-06)
        viscous  : (3.51457e-24 -1.41467e-23 -1.13764e-08)
        porous   : (0 0 0)

surfaceFieldValue pInlet write:
    average(inlet) of p = 48.1584

Time = 55

smoothSolver:  Solving for Ux, Initial residual = 0.00480729, Final residual = 0.000479862, No Iterations 1
smoothSolver:  Solving for Uy, Initial residual = 0.00369901, Final residual = 0.0003624, No Iterations 1
GAMG:  Solving for p, Initial residual = 0.0572175, Final residual = 0.000440392, No Iterations 10
time step continuity errors : sum local = 0.00410477, global = -0.0010015, cumulative = 0.0368569
smoothSolver:  Solving for epsilon, Initial residual = 0.00526563, Final residual = 0.000343444, No Iterations 1
smoothSolver:  Solving for k, Initial residual = 0.00666773, Final residual = 0.000510485, No Iterations 1
ExecutionTime = 2.19 s  ClockTime = 2 s

forces force write:
    sum of forces:
        pressure : (-1.585e-06 0.0315516 1.92095e-20)
        viscous  : (6.81142e-07 8.55793e-05 4.57266e-22)
        porous   : (0 0 0)
    sum of moments:
        pressure : (5.03097e-22 1.65449e-21 1.86438e-06)
        viscous  : (2.97662e-24 -1.53454e-23 -1.12719e-08)
        porous   : (0 0 0)

surfaceFieldValue pInlet write:
    average(inlet) of p = 48.9281

Time = 56

smoothSolver:  Solving for Ux, Initial residual = 0.00476988, Final residual = 0.000476418, No Iterations 1
smoothSolver:  Solving for Uy, Initial residual = 0.00367657, Final residual = 0.000360212, No Iterations 1
GAMG:  Solving for p, Initial residual = 0.0551143, Final residual = 0.000504137, No Iterations 8
time step continuity errors : sum local = 0.00466416, global = -0.00118613, cumulative = 0.0356708
smoothSolver:  Solving for epsilon, Initial residual = 0.00519722, Final residual = 0.00033901, No Iterations 1
smoothSolver:  Solving for k, Initial residual = 0.00659037, Final residual = 0.000504403, No Iterations 1
ExecutionTime = 2.22 s  ClockTime = 2 s

forces force write:
    sum of forces:
        pressure : (-1.33971e-06 0.0318675 1.87317e-20)
        viscous  : (6.9635e-07 8.51325e-05 6.48886e-22)
        porous   : (0 0 0)
    sum of moments:
        pressure : (4.94446e-22 1.68037e-21 1.80974e-06)
        viscous  : (5.68587e-24 -1.62756e-23 -1.11389e-08)
        porous   : (0 0 0)

surfaceFieldValue pInlet write:
    average(inlet) of p = 49.3225

Time = 57

smoothSolver:  Solving for Ux, Initial residual = 0.0047432, Final residual = 0.000474161, No Iterations 1
smoothSolver:  Solving for Uy, Initial residual = 0.00365512, Final residual = 0.000358235, No Iterations 1
GAMG:  Solving for p, Initial residual = 0.0526209, Final residual = 0.000524066, No Iterations 7
time step continuity errors : sum local = 0.00482515, global = 0.000925546, cumulative = 0.0365964
smoothSolver:  Solving for epsilon, Initial residual = 0.00513888, Final residual = 0.000338235, No Iterations 1
smoothSolver:  Solving for k, Initial residual = 0.00651709, Final residual = 0.000499255, No Iterations 1
ExecutionTime = 2.25 s  ClockTime = 2 s

forces force write:
    sum of forces:
        pressure : (-1.17414e-06 0.032005 1.84802e-20)
        viscous  : (7.15374e-07 8.45007e-05 3.24256e-22)
        porous   : (0 0 0)
    sum of moments:
        pressure : (4.90023e-22 1.69225e-21 1.76614e-06)
        viscous  : (1.19105e-24 -1.66562e-23 -1.11074e-08)
        porous   : (0 0 0)

surfaceFieldValue pInlet write:
    average(inlet) of p = 49.4688

Time = 58

smoothSolver:  Solving for Ux, Initial residual = 0.0047248, Final residual = 0.000472436, No Iterations 1
smoothSolver:  Solving for Uy, Initial residual = 0.00362403, Final residual = 0.000355363, No Iterations 1
GAMG:  Solving for p, Initial residual = 0.0496343, Final residual = 0.000474428, No Iterations 6
time step continuity errors : sum local = 0.00436119, global = -0.000540274, cumulative = 0.0360561
smoothSolver:  Solving for epsilon, Initial residual = 0.00508134, Final residual = 0.000335458, No Iterations 1
smoothSolver:  Solving for k, Initial residual = 0.00645029, Final residual = 0.000494665, No Iterations 1
ExecutionTime = 2.28 s  ClockTime = 2 s

forces force write:
    sum of forces:
        pressure : (-8.78754e-07 0.0319935 1.84138e-20)
        viscous  : (7.29306e-07 8.38037e-05 6.79736e-22)
        porous   : (0 0 0)
    sum of moments:
        pressure : (4.89331e-22 1.69256e-21 1.7176e-06)
        viscous  : (6.20459e-24 -1.69716e-23 -1.10036e-08)
        porous   : (0 0 0)

surfaceFieldValue pInlet write:
    average(inlet) of p = 49.3624

Time = 59

smoothSolver:  Solving for Ux, Initial residual = 0.00469683, Final residual = 4.80783e-05, No Iterations 2
smoothSolver:  Solving for Uy, Initial residual = 0.0035813, Final residual = 0.000351448, No Iterations 1
GAMG:  Solving for p, Initial residual = 0.0458774, Final residual = 0.000454603, No Iterations 7
time step continuity errors : sum local = 0.0041865, global = -0.0011253, cumulative = 0.0349308
smoothSolver:  Solving for epsilon, Initial residual = 0.00504185, Final residual = 0.000333429, No Iterations 1
smoothSolver:  Solving for k, Initial residual = 0.00637862, Final residual = 0.00048976, No Iterations 1
ExecutionTime = 2.31 s  ClockTime = 2 s

forces force write:
    sum of forces:
        pressure : (-1.12239e-06 0.0318824 1.84407e-20)
        viscous  : (7.3346e-07 8.31228e-05 5.7533e-22)
        porous   : (0 0 0)
    sum of moments:
        pressure : (4.91041e-22 1.68523e-21 1.71102e-06)
        viscous  : (4.81344e-24 -1.64699e-23 -1.06729e-08)
        porous   : (0 0 0)

surfaceFieldValue pInlet write:
    average(inlet) of p = 49.0062

Time = 60

smoothSolver:  Solving for Ux, Initial residual = 0.00464192, Final residual = 4.75658e-05, No Iterations 2
smoothSolver:  Solving for Uy, Initial residual = 0.00353735, Final residual = 0.000347338, No Iterations 1
GAMG:  Solving for p, Initial residual = 0.041878, Final residual = 0.000373085, No Iterations 7
time step continuity errors : sum local = 0.00345469, global = 0.000541958, cumulative = 0.0354727
smoothSolver:  Solving for epsilon, Initial residual = 0.00498749, Final residual = 0.000330719, No Iterations 1
smoothSolver:  Solving for k, Initial residual = 0.00631571, Final residual = 0.000484488, No Iterations 1
ExecutionTime = 2.35 s  ClockTime = 2 s

forces force write:
    sum of forces:
        pressure : (-1.54839e-06 0.0316982 1.8584e-20)
        viscous  : (7.36003e-07 8.24946e-05 4.30936e-22)
        porous   : (0 0 0)
    sum of moments:
        pressure : (4.95123e-22 1.67217e-21 1.72844e-06)
        viscous  : (2.63269e-24 -1.66063e-23 -1.03784e-08)
        porous   : (0 0 0)

surfaceFieldValue pInlet write:
    average(inlet) of p = 48.5204

Time = 61

smoothSolver:  Solving for Ux, Initial residual = 0.00457339, Final residual = 4.69099e-05, No Iterations 2
smoothSolver:  Solving for Uy, Initial residual = 0.00349159, Final residual = 0.000342824, No Iterations 1
GAMG:  Solving for p, Initial residual = 0.0383545, Final residual = 0.000307313, No Iterations 8
time step continuity errors : sum local = 0.00286707, global = 0.000445979, cumulative = 0.0359187
smoothSolver:  Solving for epsilon, Initial residual = 0.0049325, Final residual = 0.000328003, No Iterations 1
smoothSolver:  Solving for k, Initial residual = 0.00625039, Final residual = 0.000479589, No Iterations 1
ExecutionTime = 2.38 s  ClockTime = 2 s

forces force write:
    sum of forces:
        pressure : (-1.90104e-06 0.0314691 1.88008e-20)
        viscous  : (7.36518e-07 8.19959e-05 5.17472e-22)
        porous   : (0 0 0)
    sum of moments:
        pressure : (5.00646e-22 1.65581e-21 1.75606e-06)
        viscous  : (3.90613e-24 -1.56357e-23 -1.00938e-08)
        porous   : (0 0 0)

surfaceFieldValue pInlet write:
    average(inlet) of p = 47.9324

Time = 62

smoothSolver:  Solving for Ux, Initial residual = 0.00450267, Final residual = 4.62363e-05, No Iterations 2
smoothSolver:  Solving for Uy, Initial residual = 0.00344131, Final residual = 0.000337828, No Iterations 1
GAMG:  Solving for p, Initial residual = 0.035554, Final residual = 0.000325641, No Iterations 8
time step continuity errors : sum local = 0.00306529, global = 0.000385422, cumulative = 0.0363041
smoothSolver:  Solving for epsilon, Initial residual = 0.00490194, Final residual = 0.000328554, No Iterations 1
smoothSolver:  Solving for k, Initial residual = 0.00619348, Final residual = 0.00047499, No Iterations 1
ExecutionTime = 2.41 s  ClockTime = 2 s

forces force write:
    sum of forces:
        pressure : (-2.07357e-06 0.0312337 1.91223e-20)
        viscous  : (7.34347e-07 8.16521e-05 6.262e-22)
        porous   : (0 0 0)
    sum of moments:
        pressure : (5.07604e-22 1.63875e-21 1.78577e-06)
        viscous  : (5.30955e-24 -1.54184e-23 -9.80823e-09)
        porous   : (0 0 0)

surfaceFieldValue pInlet write:
    average(inlet) of p = 47.4654

Time = 63

smoothSolver:  Solving for Ux, Initial residual = 0.0044371, Final residual = 4.56223e-05, No Iterations 2
smoothSolver:  Solving for Uy, Initial residual = 0.00340069, Final residual = 0.000333733, No Iterations 1
GAMG:  Solving for p, Initial residual = 0.0338004, Final residual = 0.000304918, No Iterations 8
time step continuity errors : sum local = 0.00289316, global = 0.000332393, cumulative = 0.0366365
smoothSolver:  Solving for epsilon, Initial residual = 0.00487, Final residual = 0.000325624, No Iterations 1
smoothSolver:  Solving for k, Initial residual = 0.00613892, Final residual = 0.000470876, No Iterations 1
ExecutionTime = 2.45 s  ClockTime = 2 s

forces force write:
    sum of forces:
        pressure : (-1.9641e-06 0.0310238 1.94622e-20)
        viscous  : (7.32418e-07 8.147e-05 2.66685e-22)
        porous   : (0 0 0)
    sum of moments:
        pressure : (5.14509e-22 1.6236e-21 1.8105e-06)
        viscous  : (1.90596e-25 -1.49393e-23 -9.56612e-09)
        porous   : (0 0 0)

surfaceFieldValue pInlet write:
    average(inlet) of p = 47.1129

Time = 64

smoothSolver:  Solving for Ux, Initial residual = 0.00437945, Final residual = 4.50564e-05, No Iterations 2
smoothSolver:  Solving for Uy, Initial residual = 0.00336991, Final residual = 0.000330806, No Iterations 1
GAMG:  Solving for p, Initial residual = 0.0324252, Final residual = 0.000266072, No Iterations 8
time step continuity errors : sum local = 0.00254233, global = 0.000324846, cumulative = 0.0369614
smoothSolver:  Solving for epsilon, Initial residual = 0.00482646, Final residual = 0.000324318, No Iterations 1
smoothSolver:  Solving for k, Initial residual = 0.00608897, Final residual = 0.000467335, No Iterations 1
ExecutionTime = 2.48 s  ClockTime = 2 s

forces force write:
    sum of forces:
        pressure : (-1.7033e-06 0.0308649 1.97543e-20)
        viscous  : (7.28513e-07 8.14399e-05 5.29516e-22)
        porous   : (0 0 0)
    sum of moments:
        pressure : (5.20202e-22 1.6124e-21 1.83467e-06)
        viscous  : (3.83009e-24 -1.44895e-23 -9.33451e-09)
        porous   : (0 0 0)

surfaceFieldValue pInlet write:
    average(inlet) of p = 46.8788

Time = 65

smoothSolver:  Solving for Ux, Initial residual = 0.00432884, Final residual = 4.45429e-05, No Iterations 2
smoothSolver:  Solving for Uy, Initial residual = 0.00334139, Final residual = 0.000328276, No Iterations 1
GAMG:  Solving for p, Initial residual = 0.03096, Final residual = 0.000258101, No Iterations 8
time step continuity errors : sum local = 0.00248048, global = 0.000367607, cumulative = 0.037329
smoothSolver:  Solving for epsilon, Initial residual = 0.00478879, Final residual = 0.000322476, No Iterations 1
smoothSolver:  Solving for k, Initial residual = 0.00604257, Final residual = 0.000463457, No Iterations 1
ExecutionTime = 2.52 s  ClockTime = 2 s

forces force write:
    sum of forces:
        pressure : (-1.41964e-06 0.0307747 1.99471e-20)
        viscous  : (7.19838e-07 8.15328e-05 4.55357e-22)
        porous   : (0 0 0)
    sum of moments:
        pressure : (5.23818e-22 1.60657e-21 1.86191e-06)
        viscous  : (2.79646e-24 -1.40269e-23 -9.09068e-09)
        porous   : (0 0 0)

surfaceFieldValue pInlet write:
    average(inlet) of p = 46.7556

Time = 66

smoothSolver:  Solving for Ux, Initial residual = 0.00428025, Final residual = 4.40507e-05, No Iterations 2
smoothSolver:  Solving for Uy, Initial residual = 0.00331247, Final residual = 0.000325749, No Iterations 1
GAMG:  Solving for p, Initial residual = 0.0294145, Final residual = 0.000263428, No Iterations 8
time step continuity errors : sum local = 0.00254282, global = 0.000432901, cumulative = 0.0377619
smoothSolver:  Solving for epsilon, Initial residual = 0.00476406, Final residual = 0.000321423, No Iterations 1
smoothSolver:  Solving for k, Initial residual = 0.00598722, Final residual = 0.000458783, No Iterations 1
ExecutionTime = 2.55 s  ClockTime = 2 s

forces force write:
    sum of forces:
        pressure : (-1.24988e-06 0.0307613 2.00203e-20)
        viscous  : (7.05874e-07 8.17175e-05 1.59807e-22)
        porous   : (0 0 0)
    sum of moments:
        pressure : (5.25019e-22 1.6067e-21 1.89525e-06)
        viscous  : (-1.63277e-24 -1.47815e-23 -8.75367e-09)
        porous   : (0 0 0)

surfaceFieldValue pInlet write:
    average(inlet) of p = 46.7447

Time = 67

smoothSolver:  Solving for Ux, Initial residual = 0.00423256, Final residual = 4.36213e-05, No Iterations 2
smoothSolver:  Solving for Uy, Initial residual = 0.00328277, Final residual = 0.000323042, No Iterations 1
GAMG:  Solving for p, Initial residual = 0.0279889, Final residual = 0.000263475, No Iterations 8
time step continuity errors : sum local = 0.00255142, global = 0.000496409, cumulative = 0.0382583
smoothSolver:  Solving for epsilon, Initial residual = 0.00473281, Final residual = 0.000318834, No Iterations 1
smoothSolver:  Solving for k, Initial residual = 0.00593072, Final residual = 0.000454607, No Iterations 1
ExecutionTime = 2.59 s  ClockTime = 2 s

forces force write:
    sum of forces:
        pressure : (-1.2718e-06 0.0308212 1.99744e-20)
        viscous  : (7.10553e-07 8.19507e-05 7.74222e-22)
        porous   : (0 0 0)
    sum of moments:
        pressure : (5.23835e-22 1.61248e-21 1.9371e-06)
        viscous  : (7.72716e-24 -1.33242e-23 -8.60986e-09)
        porous   : (0 0 0)

surfaceFieldValue pInlet write:
    average(inlet) of p = 46.8376

Time = 68

smoothSolver:  Solving for Ux, Initial residual = 0.00418651, Final residual = 4.31949e-05, No Iterations 2
smoothSolver:  Solving for Uy, Initial residual = 0.00325277, Final residual = 0.000320146, No Iterations 1
GAMG:  Solving for p, Initial residual = 0.0268155, Final residual = 0.000261327, No Iterations 9
time step continuity errors : sum local = 0.00253671, global = -0.000638327, cumulative = 0.03762
smoothSolver:  Solving for epsilon, Initial residual = 0.00469349, Final residual = 0.000317708, No Iterations 1
smoothSolver:  Solving for k, Initial residual = 0.00587875, Final residual = 0.000450192, No Iterations 1
ExecutionTime = 2.63 s  ClockTime = 2 s

forces force write:
    sum of forces:
        pressure : (-1.36865e-06 0.0309433 1.98157e-20)
        viscous  : (7.23462e-07 8.21983e-05 1.88247e-22)
        porous   : (0 0 0)
    sum of moments:
        pressure : (5.20496e-22 1.62303e-21 1.97671e-06)
        viscous  : (-1.58293e-24 -1.46956e-23 -8.70092e-09)
        porous   : (0 0 0)

surfaceFieldValue pInlet write:
    average(inlet) of p = 46.9991

Time = 69

smoothSolver:  Solving for Ux, Initial residual = 0.00414172, Final residual = 4.27883e-05, No Iterations 2
smoothSolver:  Solving for Uy, Initial residual = 0.00322038, Final residual = 0.000316997, No Iterations 1
GAMG:  Solving for p, Initial residual = 0.0264466, Final residual = 0.000235269, No Iterations 8
time step continuity errors : sum local = 0.00228764, global = 0.000479485, cumulative = 0.0380995
smoothSolver:  Solving for epsilon, Initial residual = 0.00465171, Final residual = 0.000313773, No Iterations 1
smoothSolver:  Solving for k, Initial residual = 0.00582684, Final residual = 0.000446761, No Iterations 1
ExecutionTime = 2.67 s  ClockTime = 2 s

forces force write:
    sum of forces:
        pressure : (-1.65862e-06 0.0311041 1.95862e-20)
        viscous  : (7.19415e-07 8.24322e-05 3.19224e-22)
        porous   : (0 0 0)
    sum of moments:
        pressure : (5.15685e-22 1.63655e-21 2.02267e-06)
        viscous  : (6.16894e-25 -1.56131e-23 -8.45918e-09)
        porous   : (0 0 0)

surfaceFieldValue pInlet write:
    average(inlet) of p = 47.2156

Time = 70

smoothSolver:  Solving for Ux, Initial residual = 0.00409956, Final residual = 4.23895e-05, No Iterations 2
smoothSolver:  Solving for Uy, Initial residual = 0.00318696, Final residual = 0.000313794, No Iterations 1
GAMG:  Solving for p, Initial residual = 0.0268738, Final residual = 0.000232053, No Iterations 8
time step continuity errors : sum local = 0.00225779, global = 0.000461928, cumulative = 0.0385614
smoothSolver:  Solving for epsilon, Initial residual = 0.00460525, Final residual = 0.000312416, No Iterations 1
smoothSolver:  Solving for k, Initial residual = 0.00577419, Final residual = 0.000442469, No Iterations 1
ExecutionTime = 2.7 s  ClockTime = 2 s

forces force write:
    sum of forces:
        pressure : (-2.22865e-06 0.0312804 1.929e-20)
        viscous  : (7.06649e-07 8.26171e-05 4.47367e-22)
        porous   : (0 0 0)
    sum of moments:
        pressure : (5.09657e-22 1.65137e-21 2.08267e-06)
        viscous  : (2.2955e-24 -1.71184e-23 -8.10626e-09)
        porous   : (0 0 0)

surfaceFieldValue pInlet write:
    average(inlet) of p = 47.4032

Time = 71

smoothSolver:  Solving for Ux, Initial residual = 0.0040606, Final residual = 4.19842e-05, No Iterations 2
smoothSolver:  Solving for Uy, Initial residual = 0.0031534, Final residual = 0.000310642, No Iterations 1
GAMG:  Solving for p, Initial residual = 0.0275195, Final residual = 0.000238927, No Iterations 8
time step continuity errors : sum local = 0.0023272, global = 0.000444167, cumulative = 0.0390056
smoothSolver:  Solving for epsilon, Initial residual = 0.00456313, Final residual = 0.000310545, No Iterations 1
smoothSolver:  Solving for k, Initial residual = 0.00572437, Final residual = 0.000438824, No Iterations 1
ExecutionTime = 2.73 s  ClockTime = 2 s

forces force write:
    sum of forces:
        pressure : (-2.74648e-06 0.0314523 1.89607e-20)
        viscous  : (7.13767e-07 8.27414e-05 7.30666e-22)
        porous   : (0 0 0)
    sum of moments:
        pressure : (5.03083e-22 1.66599e-21 2.14295e-06)
        viscous  : (7.24255e-24 -1.43973e-23 -8.02467e-09)
        porous   : (0 0 0)

surfaceFieldValue pInlet write:
    average(inlet) of p = 47.5278

Time = 72

smoothSolver:  Solving for Ux, Initial residual = 0.00402031, Final residual = 4.15711e-05, No Iterations 2
smoothSolver:  Solving for Uy, Initial residual = 0.00311997, Final residual = 0.000307453, No Iterations 1
GAMG:  Solving for p, Initial residual = 0.0280344, Final residual = 0.000247498, No Iterations 8
time step continuity errors : sum local = 0.00241411, global = 0.000440474, cumulative = 0.039446
smoothSolver:  Solving for epsilon, Initial residual = 0.00453078, Final residual = 0.000308041, No Iterations 1
[...]

surfaceFieldValue pInlet write:
    average(inlet) of p = 72.3963

Time = 1983

smoothSolver:  Solving for Ux, Initial residual = 0.000456231, Final residual = 5.76216e-06, No Iterations 2
smoothSolver:  Solving for Uy, Initial residual = 4.84825e-05, Final residual = 4.89085e-06, No Iterations 1
GAMG:  Solving for p, Initial residual = 0.000600693, Final residual = 7.50452e-06, No Iterations 15
time step continuity errors : sum local = 5.62131e-05, global = -1.9992e-06, cumulative = 0.0606044
smoothSolver:  Solving for epsilon, Initial residual = 0.000119329, Final residual = 1.01242e-05, No Iterations 1
smoothSolver:  Solving for k, Initial residual = 5.99405e-05, Final residual = 5.41139e-06, No Iterations 1
ExecutionTime = 83.89 s  ClockTime = 84 s

forces force write:
    sum of forces:
        pressure : (1.95518e-05 0.0320393 2.93244e-20)
        viscous  : (5.21745e-07 8.45527e-05 -6.13808e-24)
        porous   : (0 0 0)
    sum of moments:
        pressure : (5.95689e-22 1.72204e-21 1.22048e-07)
        viscous  : (-6.04468e-24 -1.69853e-23 -6.63776e-09)
        porous   : (0 0 0)

surfaceFieldValue pInlet write:
    average(inlet) of p = 72.3953

Time = 1984

smoothSolver:  Solving for Ux, Initial residual = 0.000456785, Final residual = 5.76874e-06, No Iterations 2
smoothSolver:  Solving for Uy, Initial residual = 4.85382e-05, Final residual = 4.89693e-06, No Iterations 1
GAMG:  Solving for p, Initial residual = 0.00060363, Final residual = 7.49615e-06, No Iterations 15
time step continuity errors : sum local = 5.61529e-05, global = -2.00278e-06, cumulative = 0.0606024
smoothSolver:  Solving for epsilon, Initial residual = 0.00011951, Final residual = 1.01535e-05, No Iterations 1
smoothSolver:  Solving for k, Initial residual = 5.99353e-05, Final residual = 5.41001e-06, No Iterations 1
ExecutionTime = 83.93 s  ClockTime = 84 s

forces force write:
    sum of forces:
        pressure : (1.98486e-05 0.0320393 2.93255e-20)
        viscous  : (5.2685e-07 8.45514e-05 4.80149e-23)
        porous   : (0 0 0)
    sum of moments:
        pressure : (5.95718e-22 1.72207e-21 1.03274e-07)
        viscous  : (-6.68804e-24 -1.50669e-23 -6.67315e-09)
        porous   : (0 0 0)

surfaceFieldValue pInlet write:
    average(inlet) of p = 72.3942

Time = 1985

smoothSolver:  Solving for Ux, Initial residual = 0.00045733, Final residual = 5.7756e-06, No Iterations 2
smoothSolver:  Solving for Uy, Initial residual = 4.85924e-05, Final residual = 4.90268e-06, No Iterations 1
GAMG:  Solving for p, Initial residual = 0.000599508, Final residual = 7.48748e-06, No Iterations 15
time step continuity errors : sum local = 5.60862e-05, global = -2.01378e-06, cumulative = 0.0606004
smoothSolver:  Solving for epsilon, Initial residual = 0.000119944, Final residual = 1.01748e-05, No Iterations 1
smoothSolver:  Solving for k, Initial residual = 5.99756e-05, Final residual = 5.40987e-06, No Iterations 1
ExecutionTime = 83.97 s  ClockTime = 84 s

forces force write:
    sum of forces:
        pressure : (2.00985e-05 0.0320392 2.93261e-20)
        viscous  : (5.2768e-07 8.45521e-05 6.15324e-22)
        porous   : (0 0 0)
    sum of moments:
        pressure : (5.95735e-22 1.72209e-21 8.71173e-08)
        viscous  : (3.94479e-24 -1.54125e-23 -6.65119e-09)
        porous   : (0 0 0)

surfaceFieldValue pInlet write:
    average(inlet) of p = 72.3932

Time = 1986

smoothSolver:  Solving for Ux, Initial residual = 0.000457849, Final residual = 5.7819e-06, No Iterations 2
smoothSolver:  Solving for Uy, Initial residual = 4.86427e-05, Final residual = 4.90809e-06, No Iterations 1
GAMG:  Solving for p, Initial residual = 0.000607562, Final residual = 7.47656e-06, No Iterations 15
time step continuity errors : sum local = 5.60089e-05, global = -2.01625e-06, cumulative = 0.0605984
smoothSolver:  Solving for epsilon, Initial residual = 0.000120149, Final residual = 1.0186e-05, No Iterations 1
smoothSolver:  Solving for k, Initial residual = 6.00005e-05, Final residual = 5.40616e-06, No Iterations 1
ExecutionTime = 84.01 s  ClockTime = 84 s

forces force write:
    sum of forces:
        pressure : (2.03656e-05 0.0320392 2.93271e-20)
        viscous  : (5.30797e-07 8.45524e-05 -1.534e-23)
        porous   : (0 0 0)
    sum of moments:
        pressure : (5.95761e-22 1.72212e-21 6.92709e-08)
        viscous  : (-6.26172e-24 -1.74362e-23 -6.66242e-09)
        porous   : (0 0 0)

surfaceFieldValue pInlet write:
    average(inlet) of p = 72.3922

Time = 1987

smoothSolver:  Solving for Ux, Initial residual = 0.000458351, Final residual = 5.78751e-06, No Iterations 2
smoothSolver:  Solving for Uy, Initial residual = 4.86923e-05, Final residual = 4.91352e-06, No Iterations 1
GAMG:  Solving for p, Initial residual = 0.000611125, Final residual = 7.46501e-06, No Iterations 15
time step continuity errors : sum local = 5.5924e-05, global = -2.02103e-06, cumulative = 0.0605964
smoothSolver:  Solving for epsilon, Initial residual = 0.000120212, Final residual = 1.0186e-05, No Iterations 1
smoothSolver:  Solving for k, Initial residual = 5.99803e-05, Final residual = 5.40847e-06, No Iterations 1
ExecutionTime = 84.05 s  ClockTime = 84 s

forces force write:
    sum of forces:
        pressure : (2.06406e-05 0.0320391 2.9328e-20)
        viscous  : (5.34291e-07 8.45518e-05 -9.78759e-23)
        porous   : (0 0 0)
    sum of moments:
        pressure : (5.95787e-22 1.72214e-21 5.07503e-08)
        viscous  : (-8.60974e-24 -1.49355e-23 -6.67783e-09)
        porous   : (0 0 0)

surfaceFieldValue pInlet write:
    average(inlet) of p = 72.3912

Time = 1988

smoothSolver:  Solving for Ux, Initial residual = 0.000458807, Final residual = 5.79277e-06, No Iterations 2
smoothSolver:  Solving for Uy, Initial residual = 4.87424e-05, Final residual = 4.91886e-06, No Iterations 1
GAMG:  Solving for p, Initial residual = 0.000606696, Final residual = 7.45114e-06, No Iterations 15
time step continuity errors : sum local = 5.58202e-05, global = -2.02781e-06, cumulative = 0.0605943
smoothSolver:  Solving for epsilon, Initial residual = 0.000120093, Final residual = 1.02035e-05, No Iterations 1
smoothSolver:  Solving for k, Initial residual = 6.00146e-05, Final residual = 5.40786e-06, No Iterations 1
ExecutionTime = 84.09 s  ClockTime = 84 s

forces force write:
    sum of forces:
        pressure : (2.0898e-05 0.0320391 2.93288e-20)
        viscous  : (5.37138e-07 8.45512e-05 6.77534e-22)
        porous   : (0 0 0)
    sum of moments:
        pressure : (5.9581e-22 1.72216e-21 3.32164e-08)
        viscous  : (4.66672e-24 -1.57321e-23 -6.68121e-09)
        porous   : (0 0 0)

surfaceFieldValue pInlet write:
    average(inlet) of p = 72.3902

Time = 1989

smoothSolver:  Solving for Ux, Initial residual = 0.000459265, Final residual = 5.79794e-06, No Iterations 2
smoothSolver:  Solving for Uy, Initial residual = 4.87902e-05, Final residual = 4.9239e-06, No Iterations 1
GAMG:  Solving for p, Initial residual = 0.00060867, Final residual = 7.43866e-06, No Iterations 15
time step continuity errors : sum local = 5.57271e-05, global = -2.03369e-06, cumulative = 0.0605923
smoothSolver:  Solving for epsilon, Initial residual = 0.000121141, Final residual = 1.02476e-05, No Iterations 1
smoothSolver:  Solving for k, Initial residual = 6.00399e-05, Final residual = 5.40926e-06, No Iterations 1
ExecutionTime = 84.14 s  ClockTime = 84 s

forces force write:
    sum of forces:
        pressure : (2.11512e-05 0.0320391 2.93297e-20)
        viscous  : (5.39037e-07 8.45521e-05 2.04066e-22)
        porous   : (0 0 0)
    sum of moments:
        pressure : (5.95834e-22 1.72219e-21 1.58512e-08)
        viscous  : (-2.9808e-24 -1.72208e-23 -6.67442e-09)
        porous   : (0 0 0)

surfaceFieldValue pInlet write:
    average(inlet) of p = 72.3892

Time = 1990

smoothSolver:  Solving for Ux, Initial residual = 0.000459745, Final residual = 5.80385e-06, No Iterations 2
smoothSolver:  Solving for Uy, Initial residual = 4.88366e-05, Final residual = 4.92892e-06, No Iterations 1
GAMG:  Solving for p, Initial residual = 0.000607759, Final residual = 7.42116e-06, No Iterations 15
time step continuity errors : sum local = 5.56e-05, global = -2.03396e-06, cumulative = 0.0605903
smoothSolver:  Solving for epsilon, Initial residual = 0.000120911, Final residual = 1.02528e-05, No Iterations 1
smoothSolver:  Solving for k, Initial residual = 6.00989e-05, Final residual = 5.41162e-06, No Iterations 1
ExecutionTime = 84.18 s  ClockTime = 84 s

forces force write:
    sum of forces:
        pressure : (2.14236e-05 0.032039 2.93308e-20)
        viscous  : (5.42748e-07 8.45515e-05 -1.97163e-22)
        porous   : (0 0 0)
    sum of moments:
        pressure : (5.95863e-22 1.72221e-21 -3.15462e-09)
        viscous  : (-1.01133e-23 -1.44667e-23 -6.69408e-09)
        porous   : (0 0 0)

surfaceFieldValue pInlet write:
    average(inlet) of p = 72.3882

Time = 1991

smoothSolver:  Solving for Ux, Initial residual = 0.000460264, Final residual = 5.81045e-06, No Iterations 2
smoothSolver:  Solving for Uy, Initial residual = 4.88812e-05, Final residual = 4.93396e-06, No Iterations 1
GAMG:  Solving for p, Initial residual = 0.000615814, Final residual = 7.40547e-06, No Iterations 15
time step continuity errors : sum local = 5.54822e-05, global = -2.04364e-06, cumulative = 0.0605882
smoothSolver:  Solving for epsilon, Initial residual = 0.000121699, Final residual = 1.02834e-05, No Iterations 1
smoothSolver:  Solving for k, Initial residual = 6.01193e-05, Final residual = 5.41114e-06, No Iterations 1
ExecutionTime = 84.22 s  ClockTime = 84 s

forces force write:
    sum of forces:
        pressure : (2.16528e-05 0.032039 2.93314e-20)
        viscous  : (5.44072e-07 8.45511e-05 4.9471e-22)
        porous   : (0 0 0)
    sum of moments:
        pressure : (5.95883e-22 1.72224e-21 -2.00697e-08)
        viscous  : (2.24114e-24 -1.58744e-23 -6.67798e-09)
        porous   : (0 0 0)

surfaceFieldValue pInlet write:
    average(inlet) of p = 72.3872

Time = 1992

smoothSolver:  Solving for Ux, Initial residual = 0.000460823, Final residual = 5.81753e-06, No Iterations 2
smoothSolver:  Solving for Uy, Initial residual = 4.89212e-05, Final residual = 4.93836e-06, No Iterations 1
GAMG:  Solving for p, Initial residual = 0.00061487, Final residual = 7.3956e-06, No Iterations 15
time step continuity errors : sum local = 5.54102e-05, global = -2.04972e-06, cumulative = 0.0605862
smoothSolver:  Solving for epsilon, Initial residual = 0.000121881, Final residual = 1.0291e-05, No Iterations 1
smoothSolver:  Solving for k, Initial residual = 6.01259e-05, Final residual = 5.41289e-06, No Iterations 1
ExecutionTime = 84.26 s  ClockTime = 84 s

forces force write:
    sum of forces:
        pressure : (2.1889e-05 0.0320389 2.93322e-20)
        viscous  : (5.46191e-07 8.45512e-05 4.23502e-22)
        porous   : (0 0 0)
    sum of moments:
        pressure : (5.95906e-22 1.72226e-21 -3.74148e-08)
        viscous  : (3.826e-26 -1.70812e-23 -6.66984e-09)
        porous   : (0 0 0)

surfaceFieldValue pInlet write:
    average(inlet) of p = 72.3862

Time = 1993

smoothSolver:  Solving for Ux, Initial residual = 0.000461381, Final residual = 5.82436e-06, No Iterations 2
smoothSolver:  Solving for Uy, Initial residual = 4.89587e-05, Final residual = 4.94266e-06, No Iterations 1
GAMG:  Solving for p, Initial residual = 0.000611901, Final residual = 7.38301e-06, No Iterations 15
time step continuity errors : sum local = 5.53167e-05, global = -2.05499e-06, cumulative = 0.0605841
smoothSolver:  Solving for epsilon, Initial residual = 0.000120946, Final residual = 1.02931e-05, No Iterations 1
smoothSolver:  Solving for k, Initial residual = 6.01771e-05, Final residual = 5.41127e-06, No Iterations 1
ExecutionTime = 84.3 s  ClockTime = 84 s

forces force write:
    sum of forces:
        pressure : (2.21491e-05 0.0320389 2.93333e-20)
        viscous  : (5.49397e-07 8.45515e-05 -2.51806e-22)
        porous   : (0 0 0)
    sum of moments:
        pressure : (5.95937e-22 1.72229e-21 -5.66097e-08)
        viscous  : (-1.08757e-23 -1.49018e-23 -6.68747e-09)
        porous   : (0 0 0)

surfaceFieldValue pInlet write:
    average(inlet) of p = 72.3852

Time = 1994

smoothSolver:  Solving for Ux, Initial residual = 0.000461927, Final residual = 5.83087e-06, No Iterations 2
smoothSolver:  Solving for Uy, Initial residual = 4.89911e-05, Final residual = 4.94665e-06, No Iterations 1
GAMG:  Solving for p, Initial residual = 0.000614251, Final residual = 7.37027e-06, No Iterations 15
time step continuity errors : sum local = 5.52221e-05, global = -2.06283e-06, cumulative = 0.0605821
smoothSolver:  Solving for epsilon, Initial residual = 0.000122241, Final residual = 1.03286e-05, No Iterations 1
smoothSolver:  Solving for k, Initial residual = 6.0251e-05, Final residual = 5.41388e-06, No Iterations 1
ExecutionTime = 84.34 s  ClockTime = 84 s

forces force write:
    sum of forces:
        pressure : (2.2407e-05 0.0320388 2.93344e-20)
        viscous  : (5.51988e-07 8.45509e-05 5.15245e-22)
        porous   : (0 0 0)
    sum of moments:
        pressure : (5.95967e-22 1.72231e-21 -7.55763e-08)
        viscous  : (2.43788e-24 -1.54499e-23 -6.68877e-09)
        porous   : (0 0 0)

surfaceFieldValue pInlet write:
    average(inlet) of p = 72.3842

Time = 1995

smoothSolver:  Solving for Ux, Initial residual = 0.000462463, Final residual = 5.83761e-06, No Iterations 2
smoothSolver:  Solving for Uy, Initial residual = 4.90254e-05, Final residual = 4.95065e-06, No Iterations 1
GAMG:  Solving for p, Initial residual = 0.000618162, Final residual = 7.36101e-06, No Iterations 15
time step continuity errors : sum local = 5.51544e-05, global = -2.07459e-06, cumulative = 0.06058
smoothSolver:  Solving for epsilon, Initial residual = 0.000123039, Final residual = 1.03272e-05, No Iterations 1
smoothSolver:  Solving for k, Initial residual = 6.02945e-05, Final residual = 5.41706e-06, No Iterations 1
ExecutionTime = 84.38 s  ClockTime = 84 s

forces force write:
    sum of forces:
        pressure : (2.26249e-05 0.0320388 2.93351e-20)
        viscous  : (5.52501e-07 8.45512e-05 2.72543e-22)
        porous   : (0 0 0)
    sum of moments:
        pressure : (5.95988e-22 1.72233e-21 -9.25744e-08)
        viscous  : (-1.9484e-24 -1.67649e-23 -6.65915e-09)
        porous   : (0 0 0)

surfaceFieldValue pInlet write:
    average(inlet) of p = 72.3833

Time = 1996

smoothSolver:  Solving for Ux, Initial residual = 0.000462971, Final residual = 5.84379e-06, No Iterations 2
smoothSolver:  Solving for Uy, Initial residual = 4.90588e-05, Final residual = 4.95426e-06, No Iterations 1
GAMG:  Solving for p, Initial residual = 0.000618392, Final residual = 7.34831e-06, No Iterations 15
time step continuity errors : sum local = 5.50615e-05, global = -2.07989e-06, cumulative = 0.0605779
smoothSolver:  Solving for epsilon, Initial residual = 0.000122125, Final residual = 1.03412e-05, No Iterations 1
smoothSolver:  Solving for k, Initial residual = 6.03259e-05, Final residual = 5.41962e-06, No Iterations 1
ExecutionTime = 84.42 s  ClockTime = 84 s

forces force write:
    sum of forces:
        pressure : (2.28446e-05 0.0320388 2.9336e-20)
        viscous  : (5.54926e-07 8.45507e-05 -1.49596e-22)
        porous   : (0 0 0)
    sum of moments:
        pressure : (5.96013e-22 1.72236e-21 -1.10444e-07)
        viscous  : (-9.5822e-24 -1.55301e-23 -6.6625e-09)
        porous   : (0 0 0)

surfaceFieldValue pInlet write:
    average(inlet) of p = 72.3823

Time = 1997

smoothSolver:  Solving for Ux, Initial residual = 0.000463462, Final residual = 5.84931e-06, No Iterations 2
smoothSolver:  Solving for Uy, Initial residual = 4.90896e-05, Final residual = 4.95776e-06, No Iterations 1
GAMG:  Solving for p, Initial residual = 0.000613544, Final residual = 7.33232e-06, No Iterations 15
time step continuity errors : sum local = 5.49406e-05, global = -2.08762e-06, cumulative = 0.0605758
smoothSolver:  Solving for epsilon, Initial residual = 0.000122523, Final residual = 1.03627e-05, No Iterations 1
smoothSolver:  Solving for k, Initial residual = 6.03835e-05, Final residual = 5.42396e-06, No Iterations 1
ExecutionTime = 84.46 s  ClockTime = 84 s

forces force write:
    sum of forces:
        pressure : (2.30655e-05 0.0320387 2.93369e-20)
        viscous  : (5.56625e-07 8.45508e-05 6.76273e-22)
        porous   : (0 0 0)
    sum of moments:
        pressure : (5.96037e-22 1.72238e-21 -1.28182e-07)
        viscous  : (4.74201e-24 -1.61758e-23 -6.65216e-09)
        porous   : (0 0 0)

surfaceFieldValue pInlet write:
    average(inlet) of p = 72.3814

Time = 1998

smoothSolver:  Solving for Ux, Initial residual = 0.000463913, Final residual = 5.85458e-06, No Iterations 2
smoothSolver:  Solving for Uy, Initial residual = 4.91177e-05, Final residual = 4.96119e-06, No Iterations 1
GAMG:  Solving for p, Initial residual = 0.000618111, Final residual = 7.31597e-06, No Iterations 15
time step continuity errors : sum local = 5.48204e-05, global = -2.08921e-06, cumulative = 0.0605737
smoothSolver:  Solving for epsilon, Initial residual = 0.000123063, Final residual = 1.03767e-05, No Iterations 1
smoothSolver:  Solving for k, Initial residual = 6.0445e-05, Final residual = 5.42776e-06, No Iterations 1
ExecutionTime = 84.5 s  ClockTime = 84 s

forces force write:
    sum of forces:
        pressure : (2.32926e-05 0.0320387 2.93379e-20)
        viscous  : (5.5838e-07 8.45507e-05 1.87597e-22)
        porous   : (0 0 0)
    sum of moments:
        pressure : (5.96066e-22 1.72241e-21 -1.46438e-07)
        viscous  : (-3.21715e-24 -1.63296e-23 -6.64067e-09)
        porous   : (0 0 0)

surfaceFieldValue pInlet write:
    average(inlet) of p = 72.3805

Time = 1999

smoothSolver:  Solving for Ux, Initial residual = 0.000464329, Final residual = 5.85962e-06, No Iterations 2
smoothSolver:  Solving for Uy, Initial residual = 4.9143e-05, Final residual = 4.96434e-06, No Iterations 1
GAMG:  Solving for p, Initial residual = 0.000623081, Final residual = 7.29856e-06, No Iterations 15
time step continuity errors : sum local = 5.4691e-05, global = -2.09418e-06, cumulative = 0.0605716
smoothSolver:  Solving for epsilon, Initial residual = 0.000123252, Final residual = 1.03886e-05, No Iterations 1
smoothSolver:  Solving for k, Initial residual = 6.05379e-05, Final residual = 5.43188e-06, No Iterations 1
ExecutionTime = 84.54 s  ClockTime = 84 s

forces force write:
    sum of forces:
        pressure : (2.35355e-05 0.0320386 2.93391e-20)
        viscous  : (5.60418e-07 8.45508e-05 -3.21847e-22)
        porous   : (0 0 0)
    sum of moments:
        pressure : (5.96098e-22 1.72243e-21 -1.66036e-07)
        viscous  : (-1.18269e-23 -1.47472e-23 -6.64148e-09)
        porous   : (0 0 0)

surfaceFieldValue pInlet write:
    average(inlet) of p = 72.3796

Time = 2000

smoothSolver:  Solving for Ux, Initial residual = 0.000464769, Final residual = 5.86497e-06, No Iterations 2
smoothSolver:  Solving for Uy, Initial residual = 4.91661e-05, Final residual = 4.96733e-06, No Iterations 1
GAMG:  Solving for p, Initial residual = 0.000623339, Final residual = 7.27887e-06, No Iterations 15
time step continuity errors : sum local = 5.45448e-05, global = -2.10433e-06, cumulative = 0.0605695
smoothSolver:  Solving for epsilon, Initial residual = 0.00012356, Final residual = 1.04022e-05, No Iterations 1
smoothSolver:  Solving for k, Initial residual = 6.0593e-05, Final residual = 5.43605e-06, No Iterations 1
ExecutionTime = 84.64 s  ClockTime = 84 s

forces force write:
    sum of forces:
        pressure : (2.37454e-05 0.0320386 2.93399e-20)
        viscous  : (5.61605e-07 8.455e-05 8.8603e-22)
        porous   : (0 0 0)
    sum of moments:
        pressure : (5.96123e-22 1.72246e-21 -1.83834e-07)
        viscous  : (7.62749e-24 -1.58025e-23 -6.62022e-09)
        porous   : (0 0 0)

surfaceFieldValue pInlet write:
    average(inlet) of p = 72.3787

End

