/*---------------------------------------------------------------------------*\
  =========                 |
  \\      /  F ield         | OpenFOAM: The Open Source CFD Toolbox
   \\    /   O peration     | Website:  https://openfoam.org
    \\  /    A nd           | Version:  8
     \\/     M anipulation  |
\*---------------------------------------------------------------------------*/
Build  : 8
Exec   : pimpleFoam -postProcess -func yPlus
Date   : Dec 05 2020
Time   : 09:52:01
Host   : "edo20-HP-Pavilion-Notebook"
PID    : 13108
I/O    : uncollated
Case   : /home/edo20/Piscaglia/Shared_docker_folder/Shared_CTTP/Assignement/Lab02-incompFlows/combustorPimpleBlown
nProcs : 1
sigFpe : Enabling floating point exception trapping (FOAM_SIGFPE).
fileModificationChecking : Monitoring run-time modified files using timeStampMaster (fileModificationSkew 10)
allowSystemOperations : Allowing user-supplied system call operations

// * * * * * * * * * * * * * * * * * * * * * * * * * * * * * * * * * * * * * //
Create time

Create mesh for time = 0


PIMPLE: No convergence criteria found


PIMPLE: Corrector convergence criteria found
        p: tolerance 0.001, relTol 1
        "(U|k|epsilon)": tolerance 0.0001, relTol 0
        Calculations will do 100 corrections if the convergence criteria are not met


PIMPLE: Operating solver in transient mode with 100 outer correctors


Time = 0
Reading field p

Reading field U

Reading/calculating face flux field phi

Selecting incompressible transport model Newtonian
Selecting turbulence model type RAS
Selecting RAS turbulence model kEpsilon
RAS
{
    model           kEpsilon;
    turbulence      on;
    printCoeffs     on;
    Cmu             0.09;
    C1              1.44;
    C2              1.92;
    C3              0;
    sigmak          1;
    sigmaEps        1.3;
}

No MRF models present

No finite volume options present
yPlus yPlus write:
    writing object yPlus
    patch splitter y+ : min = 11.5152, max = 14.4425, average = 11.9322
    patch back y+ : min = 7.88779, max = 10.1931, average = 7.99964
    patch sides y+ : min = 11.2238, max = 11.2268, average = 11.2253


Time = 0.01
Reading field p

Reading field U

Reading/calculating face flux field phi

Selecting incompressible transport model Newtonian
Selecting turbulence model type RAS
Selecting RAS turbulence model kEpsilon
RAS
{
    model           kEpsilon;
    turbulence      on;
    printCoeffs     on;
    Cmu             0.09;
    C1              1.44;
    C2              1.92;
    C3              0;
    sigmak          1;
    sigmaEps        1.3;
}

No MRF models present

No finite volume options present
yPlus yPlus write:
    writing object yPlus
    patch splitter y+ : min = 32.5091, max = 56.1464, average = 36.6266
    patch back y+ : min = 7.15219, max = 12.7905, average = 10.604
    patch sides y+ : min = 9.67014, max = 28.304, average = 16.4821


Time = 0.02
Reading field p

Reading field U

Reading/calculating face flux field phi

Selecting incompressible transport model Newtonian
Selecting turbulence model type RAS
Selecting RAS turbulence model kEpsilon
RAS
{
    model           kEpsilon;
    turbulence      on;
    printCoeffs     on;
    Cmu             0.09;
    C1              1.44;
    C2              1.92;
    C3              0;
    sigmak          1;
    sigmaEps        1.3;
}

No MRF models present

No finite volume options present
yPlus yPlus write:
    writing object yPlus
    patch splitter y+ : min = 33.06, max = 56.8024, average = 37.1444
    patch back y+ : min = 10.0821, max = 13.4497, average = 11.6545
    patch sides y+ : min = 9.70473, max = 28.9146, average = 18.7255


Time = 0.03
Reading field p

Reading field U

Reading/calculating face flux field phi

Selecting incompressible transport model Newtonian
Selecting turbulence model type RAS
Selecting RAS turbulence model kEpsilon
RAS
{
    model           kEpsilon;
    turbulence      on;
    printCoeffs     on;
    Cmu             0.09;
    C1              1.44;
    C2              1.92;
    C3              0;
    sigmak          1;
    sigmaEps        1.3;
}

No MRF models present

No finite volume options present
yPlus yPlus write:
    writing object yPlus
    patch splitter y+ : min = 33.2385, max = 57.0891, average = 37.3244
    patch back y+ : min = 9.97452, max = 13.0474, average = 11.4225
    patch sides y+ : min = 9.70462, max = 28.5791, average = 21.215


Time = 0.04
Reading field p

Reading field U

Reading/calculating face flux field phi

Selecting incompressible transport model Newtonian
Selecting turbulence model type RAS
Selecting RAS turbulence model kEpsilon
RAS
{
    model           kEpsilon;
    turbulence      on;
    printCoeffs     on;
    Cmu             0.09;
    C1              1.44;
    C2              1.92;
    C3              0;
    sigmak          1;
    sigmaEps        1.3;
}

No MRF models present

No finite volume options present
yPlus yPlus write:
    writing object yPlus
    patch splitter y+ : min = 33.3368, max = 57.242, average = 37.4471
    patch back y+ : min = 9.37407, max = 12.4521, average = 11.1812
    patch sides y+ : min = 9.70461, max = 28.442, average = 21.9148


Time = 0.05
Reading field p

Reading field U

Reading/calculating face flux field phi

Selecting incompressible transport model Newtonian
Selecting turbulence model type RAS
Selecting RAS turbulence model kEpsilon
RAS
{
    model           kEpsilon;
    turbulence      on;
    printCoeffs     on;
    Cmu             0.09;
    C1              1.44;
    C2              1.92;
    C3              0;
    sigmak          1;
    sigmaEps        1.3;
}

No MRF models present

No finite volume options present
yPlus yPlus write:
    writing object yPlus
    patch splitter y+ : min = 33.4778, max = 57.4253, average = 37.5994
    patch back y+ : min = 8.7459, max = 12.1665, average = 10.9359
    patch sides y+ : min = 9.70461, max = 28.3999, average = 22.1717


Time = 0.06
Reading field p

Reading field U

Reading/calculating face flux field phi

Selecting incompressible transport model Newtonian
Selecting turbulence model type RAS
Selecting RAS turbulence model kEpsilon
RAS
{
    model           kEpsilon;
    turbulence      on;
    printCoeffs     on;
    Cmu             0.09;
    C1              1.44;
    C2              1.92;
    C3              0;
    sigmak          1;
    sigmaEps        1.3;
}

No MRF models present

No finite volume options present
yPlus yPlus write:
    writing object yPlus
    patch splitter y+ : min = 33.4833, max = 57.4244, average = 37.6046
    patch back y+ : min = 8.28502, max = 11.9468, average = 10.7398
    patch sides y+ : min = 9.70462, max = 28.3211, average = 22.3425


Time = 0.07
Reading field p

Reading field U

Reading/calculating face flux field phi

Selecting incompressible transport model Newtonian
Selecting turbulence model type RAS
Selecting RAS turbulence model kEpsilon
RAS
{
    model           kEpsilon;
    turbulence      on;
    printCoeffs     on;
    Cmu             0.09;
    C1              1.44;
    C2              1.92;
    C3              0;
    sigmak          1;
    sigmaEps        1.3;
}

No MRF models present

No finite volume options present
yPlus yPlus write:
    writing object yPlus
    patch splitter y+ : min = 33.4819, max = 57.4231, average = 37.6027
    patch back y+ : min = 7.93427, max = 11.7108, average = 10.5713
    patch sides y+ : min = 9.70462, max = 28.328, average = 22.4328


Time = 0.08
Reading field p

Reading field U

Reading/calculating face flux field phi

Selecting incompressible transport model Newtonian
Selecting turbulence model type RAS
Selecting RAS turbulence model kEpsilon
RAS
{
    model           kEpsilon;
    turbulence      on;
    printCoeffs     on;
    Cmu             0.09;
    C1              1.44;
    C2              1.92;
    C3              0;
    sigmak          1;
    sigmaEps        1.3;
}

No MRF models present

No finite volume options present
yPlus yPlus write:
    writing object yPlus
    patch splitter y+ : min = 33.4812, max = 57.4225, average = 37.6017
    patch back y+ : min = 7.66649, max = 11.7687, average = 10.4389
    patch sides y+ : min = 9.70462, max = 28.3523, average = 22.4686


Time = 0.09
Reading field p

Reading field U

Reading/calculating face flux field phi

Selecting incompressible transport model Newtonian
Selecting turbulence model type RAS
Selecting RAS turbulence model kEpsilon
RAS
{
    model           kEpsilon;
    turbulence      on;
    printCoeffs     on;
    Cmu             0.09;
    C1              1.44;
    C2              1.92;
    C3              0;
    sigmak          1;
    sigmaEps        1.3;
}

No MRF models present

No finite volume options present
yPlus yPlus write:
    writing object yPlus
    patch splitter y+ : min = 33.481, max = 57.4221, average = 37.6012
    patch back y+ : min = 7.48059, max = 11.7892, average = 10.3441
    patch sides y+ : min = 9.70462, max = 28.3719, average = 22.4656


Time = 0.1
Reading field p

Reading field U

Reading/calculating face flux field phi

Selecting incompressible transport model Newtonian
Selecting turbulence model type RAS
Selecting RAS turbulence model kEpsilon
RAS
{
    model           kEpsilon;
    turbulence      on;
    printCoeffs     on;
    Cmu             0.09;
    C1              1.44;
    C2              1.92;
    C3              0;
    sigmak          1;
    sigmaEps        1.3;
}

No MRF models present

No finite volume options present
yPlus yPlus write:
    writing object yPlus
    patch splitter y+ : min = 33.4807, max = 57.4219, average = 37.6008
    patch back y+ : min = 7.33921, max = 11.6686, average = 10.2757
    patch sides y+ : min = 9.70462, max = 28.3834, average = 22.4571


Time = 0.11
Reading field p

Reading field U

Reading/calculating face flux field phi

Selecting incompressible transport model Newtonian
Selecting turbulence model type RAS
Selecting RAS turbulence model kEpsilon
RAS
{
    model           kEpsilon;
    turbulence      on;
    printCoeffs     on;
    Cmu             0.09;
    C1              1.44;
    C2              1.92;
    C3              0;
    sigmak          1;
    sigmaEps        1.3;
}

No MRF models present

No finite volume options present
yPlus yPlus write:
    writing object yPlus
    patch splitter y+ : min = 33.4805, max = 57.4219, average = 37.6006
    patch back y+ : min = 7.18339, max = 11.8901, average = 10.1847
    patch sides y+ : min = 9.70462, max = 28.3897, average = 22.4546


Time = 0.12
Reading field p

Reading field U

Reading/calculating face flux field phi

Selecting incompressible transport model Newtonian
Selecting turbulence model type RAS
Selecting RAS turbulence model kEpsilon
RAS
{
    model           kEpsilon;
    turbulence      on;
    printCoeffs     on;
    Cmu             0.09;
    C1              1.44;
    C2              1.92;
    C3              0;
    sigmak          1;
    sigmaEps        1.3;
}

No MRF models present

No finite volume options present
yPlus yPlus write:
    writing object yPlus
    patch splitter y+ : min = 33.4805, max = 57.4218, average = 37.6004
    patch back y+ : min = 7.05595, max = 11.6373, average = 10.0903
    patch sides y+ : min = 9.70462, max = 28.3974, average = 22.4569


Time = 0.13
Reading field p

Reading field U

Reading/calculating face flux field phi

Selecting incompressible transport model Newtonian
Selecting turbulence model type RAS
Selecting RAS turbulence model kEpsilon
RAS
{
    model           kEpsilon;
    turbulence      on;
    printCoeffs     on;
    Cmu             0.09;
    C1              1.44;
    C2              1.92;
    C3              0;
    sigmak          1;
    sigmaEps        1.3;
}

No MRF models present

No finite volume options present
yPlus yPlus write:
    writing object yPlus
    patch splitter y+ : min = 33.4804, max = 57.4216, average = 37.6002
    patch back y+ : min = 6.9458, max = 11.8022, average = 10.0179
    patch sides y+ : min = 9.70462, max = 28.4054, average = 22.4608


Time = 0.14
Reading field p

Reading field U

Reading/calculating face flux field phi

Selecting incompressible transport model Newtonian
Selecting turbulence model type RAS
Selecting RAS turbulence model kEpsilon
RAS
{
    model           kEpsilon;
    turbulence      on;
    printCoeffs     on;
    Cmu             0.09;
    C1              1.44;
    C2              1.92;
    C3              0;
    sigmak          1;
    sigmaEps        1.3;
}

No MRF models present

No finite volume options present
yPlus yPlus write:
    writing object yPlus
    patch splitter y+ : min = 33.4801, max = 57.4216, average = 37.6
    patch back y+ : min = 6.85155, max = 11.8585, average = 9.96956
    patch sides y+ : min = 9.70462, max = 28.4069, average = 22.4643


Time = 0.15
Reading field p

Reading field U

Reading/calculating face flux field phi

Selecting incompressible transport model Newtonian
Selecting turbulence model type RAS
Selecting RAS turbulence model kEpsilon
RAS
{
    model           kEpsilon;
    turbulence      on;
    printCoeffs     on;
    Cmu             0.09;
    C1              1.44;
    C2              1.92;
    C3              0;
    sigmak          1;
    sigmaEps        1.3;
}

No MRF models present

No finite volume options present
yPlus yPlus write:
    writing object yPlus
    patch splitter y+ : min = 33.4801, max = 57.4216, average = 37.5999
    patch back y+ : min = 6.77894, max = 11.6408, average = 9.9353
    patch sides y+ : min = 9.70462, max = 28.4101, average = 22.4668


Time = 0.16
Reading field p

Reading field U

Reading/calculating face flux field phi

Selecting incompressible transport model Newtonian
Selecting turbulence model type RAS
Selecting RAS turbulence model kEpsilon
RAS
{
    model           kEpsilon;
    turbulence      on;
    printCoeffs     on;
    Cmu             0.09;
    C1              1.44;
    C2              1.92;
    C3              0;
    sigmak          1;
    sigmaEps        1.3;
}

No MRF models present

No finite volume options present
yPlus yPlus write:
    writing object yPlus
    patch splitter y+ : min = 33.4802, max = 57.4214, average = 37.5998
    patch back y+ : min = 6.71667, max = 11.7509, average = 9.90899
    patch sides y+ : min = 9.70462, max = 28.4174, average = 22.4686


Time = 0.17
Reading field p

Reading field U

Reading/calculating face flux field phi

Selecting incompressible transport model Newtonian
Selecting turbulence model type RAS
Selecting RAS turbulence model kEpsilon
RAS
{
    model           kEpsilon;
    turbulence      on;
    printCoeffs     on;
    Cmu             0.09;
    C1              1.44;
    C2              1.92;
    C3              0;
    sigmak          1;
    sigmaEps        1.3;
}

No MRF models present

No finite volume options present
yPlus yPlus write:
    writing object yPlus
    patch splitter y+ : min = 33.4801, max = 57.4213, average = 37.5997
    patch back y+ : min = 6.66081, max = 11.688, average = 9.85431
    patch sides y+ : min = 9.70462, max = 28.4192, average = 22.47


Time = 0.18
Reading field p

Reading field U

Reading/calculating face flux field phi

Selecting incompressible transport model Newtonian
Selecting turbulence model type RAS
Selecting RAS turbulence model kEpsilon
RAS
{
    model           kEpsilon;
    turbulence      on;
    printCoeffs     on;
    Cmu             0.09;
    C1              1.44;
    C2              1.92;
    C3              0;
    sigmak          1;
    sigmaEps        1.3;
}

No MRF models present

No finite volume options present
yPlus yPlus write:
    writing object yPlus
    patch splitter y+ : min = 33.4799, max = 57.4215, average = 37.5996
    patch back y+ : min = 6.60526, max = 11.7335, average = 9.79563
    patch sides y+ : min = 9.70462, max = 28.4166, average = 22.4713


Time = 0.19
Reading field p

Reading field U

Reading/calculating face flux field phi

Selecting incompressible transport model Newtonian
Selecting turbulence model type RAS
Selecting RAS turbulence model kEpsilon
RAS
{
    model           kEpsilon;
    turbulence      on;
    printCoeffs     on;
    Cmu             0.09;
    C1              1.44;
    C2              1.92;
    C3              0;
    sigmak          1;
    sigmaEps        1.3;
}

No MRF models present

No finite volume options present
yPlus yPlus write:
    writing object yPlus
    patch splitter y+ : min = 33.48, max = 57.4214, average = 37.5996
    patch back y+ : min = 6.55445, max = 11.6186, average = 9.76995
    patch sides y+ : min = 9.70462, max = 28.422, average = 22.4724


Time = 0.2
Reading field p

Reading field U

Reading/calculating face flux field phi

Selecting incompressible transport model Newtonian
Selecting turbulence model type RAS
Selecting RAS turbulence model kEpsilon
RAS
{
    model           kEpsilon;
    turbulence      on;
    printCoeffs     on;
    Cmu             0.09;
    C1              1.44;
    C2              1.92;
    C3              0;
    sigmak          1;
    sigmaEps        1.3;
}

No MRF models present

No finite volume options present
yPlus yPlus write:
    writing object yPlus
    patch splitter y+ : min = 33.48, max = 57.4212, average = 37.5995
    patch back y+ : min = 6.50945, max = 11.5345, average = 9.73843
    patch sides y+ : min = 9.70462, max = 28.4287, average = 22.4735


Time = 0.21
Reading field p

Reading field U

Reading/calculating face flux field phi

Selecting incompressible transport model Newtonian
Selecting turbulence model type RAS
Selecting RAS turbulence model kEpsilon
RAS
{
    model           kEpsilon;
    turbulence      on;
    printCoeffs     on;
    Cmu             0.09;
    C1              1.44;
    C2              1.92;
    C3              0;
    sigmak          1;
    sigmaEps        1.3;
}

No MRF models present

No finite volume options present
yPlus yPlus write:
    writing object yPlus
    patch splitter y+ : min = 33.4797, max = 57.4212, average = 37.5994
    patch back y+ : min = 6.46735, max = 11.6058, average = 9.68037
    patch sides y+ : min = 9.70462, max = 28.4238, average = 22.4744


Time = 0.22
Reading field p

Reading field U

Reading/calculating face flux field phi

Selecting incompressible transport model Newtonian
Selecting turbulence model type RAS
Selecting RAS turbulence model kEpsilon
RAS
{
    model           kEpsilon;
    turbulence      on;
    printCoeffs     on;
    Cmu             0.09;
    C1              1.44;
    C2              1.92;
    C3              0;
    sigmak          1;
    sigmaEps        1.3;
}

No MRF models present

No finite volume options present
yPlus yPlus write:
    writing object yPlus
    patch splitter y+ : min = 33.4797, max = 57.4214, average = 37.5994
    patch back y+ : min = 6.42301, max = 11.6593, average = 9.70386
    patch sides y+ : min = 9.70462, max = 28.4243, average = 22.4753


Time = 0.23
Reading field p

Reading field U

Reading/calculating face flux field phi

Selecting incompressible transport model Newtonian
Selecting turbulence model type RAS
Selecting RAS turbulence model kEpsilon
RAS
{
    model           kEpsilon;
    turbulence      on;
    printCoeffs     on;
    Cmu             0.09;
    C1              1.44;
    C2              1.92;
    C3              0;
    sigmak          1;
    sigmaEps        1.3;
}

No MRF models present

No finite volume options present
yPlus yPlus write:
    writing object yPlus
    patch splitter y+ : min = 33.4801, max = 57.4212, average = 37.5993
    patch back y+ : min = 6.38208, max = 11.6147, average = 9.64903
    patch sides y+ : min = 9.70462, max = 28.436, average = 22.476


Time = 0.24
Reading field p

Reading field U

Reading/calculating face flux field phi

Selecting incompressible transport model Newtonian
Selecting turbulence model type RAS
Selecting RAS turbulence model kEpsilon
RAS
{
    model           kEpsilon;
    turbulence      on;
    printCoeffs     on;
    Cmu             0.09;
    C1              1.44;
    C2              1.92;
    C3              0;
    sigmak          1;
    sigmaEps        1.3;
}

No MRF models present

No finite volume options present
yPlus yPlus write:
    writing object yPlus
    patch splitter y+ : min = 33.4796, max = 57.4211, average = 37.5993
    patch back y+ : min = 6.34516, max = 11.5864, average = 9.61674
    patch sides y+ : min = 9.70462, max = 28.4286, average = 22.4766


Time = 0.25
Reading field p

Reading field U

Reading/calculating face flux field phi

Selecting incompressible transport model Newtonian
Selecting turbulence model type RAS
Selecting RAS turbulence model kEpsilon
RAS
{
    model           kEpsilon;
    turbulence      on;
    printCoeffs     on;
    Cmu             0.09;
    C1              1.44;
    C2              1.92;
    C3              0;
    sigmak          1;
    sigmaEps        1.3;
}

No MRF models present

No finite volume options present
yPlus yPlus write:
    writing object yPlus
    patch splitter y+ : min = 33.4796, max = 57.4214, average = 37.5992
    patch back y+ : min = 6.3111, max = 11.6426, average = 9.61699
    patch sides y+ : min = 9.70462, max = 28.4301, average = 22.4772


Time = 0.26
Reading field p

Reading field U

Reading/calculating face flux field phi

Selecting incompressible transport model Newtonian
Selecting turbulence model type RAS
Selecting RAS turbulence model kEpsilon
RAS
{
    model           kEpsilon;
    turbulence      on;
    printCoeffs     on;
    Cmu             0.09;
    C1              1.44;
    C2              1.92;
    C3              0;
    sigmak          1;
    sigmaEps        1.3;
}

No MRF models present

No finite volume options present
yPlus yPlus write:
    writing object yPlus
    patch splitter y+ : min = 33.4801, max = 57.4213, average = 37.5992
    patch back y+ : min = 6.27792, max = 11.5895, average = 9.57682
    patch sides y+ : min = 9.70462, max = 28.4462, average = 22.4777


Time = 0.27
Reading field p

Reading field U

Reading/calculating face flux field phi

Selecting incompressible transport model Newtonian
Selecting turbulence model type RAS
Selecting RAS turbulence model kEpsilon
RAS
{
    model           kEpsilon;
    turbulence      on;
    printCoeffs     on;
    Cmu             0.09;
    C1              1.44;
    C2              1.92;
    C3              0;
    sigmak          1;
    sigmaEps        1.3;
}

No MRF models present

No finite volume options present
yPlus yPlus write:
    writing object yPlus
    patch splitter y+ : min = 33.4792, max = 57.4213, average = 37.5992
    patch back y+ : min = 6.24862, max = 11.5875, average = 9.54678
    patch sides y+ : min = 9.70462, max = 28.4381, average = 22.4782


Time = 0.28
Reading field p

Reading field U

Reading/calculating face flux field phi

Selecting incompressible transport model Newtonian
Selecting turbulence model type RAS
Selecting RAS turbulence model kEpsilon
RAS
{
    model           kEpsilon;
    turbulence      on;
    printCoeffs     on;
    Cmu             0.09;
    C1              1.44;
    C2              1.92;
    C3              0;
    sigmak          1;
    sigmaEps        1.3;
}

No MRF models present

No finite volume options present
yPlus yPlus write:
    writing object yPlus
    patch splitter y+ : min = 33.4801, max = 57.4212, average = 37.5992
    patch back y+ : min = 6.2278, max = 11.599, average = 9.51179
    patch sides y+ : min = 9.70462, max = 28.4359, average = 22.4785


Time = 0.29
Reading field p

Reading field U

Reading/calculating face flux field phi

Selecting incompressible transport model Newtonian
Selecting turbulence model type RAS
Selecting RAS turbulence model kEpsilon
RAS
{
    model           kEpsilon;
    turbulence      on;
    printCoeffs     on;
    Cmu             0.09;
    C1              1.44;
    C2              1.92;
    C3              0;
    sigmak          1;
    sigmaEps        1.3;
}

No MRF models present

No finite volume options present
yPlus yPlus write:
    writing object yPlus
    patch splitter y+ : min = 33.4796, max = 57.4215, average = 37.5992
    patch back y+ : min = 6.21106, max = 11.6565, average = 9.52556
    patch sides y+ : min = 9.70462, max = 28.4485, average = 22.4787


Time = 0.3
Reading field p

Reading field U

Reading/calculating face flux field phi

Selecting incompressible transport model Newtonian
Selecting turbulence model type RAS
Selecting RAS turbulence model kEpsilon
RAS
{
    model           kEpsilon;
    turbulence      on;
    printCoeffs     on;
    Cmu             0.09;
    C1              1.44;
    C2              1.92;
    C3              0;
    sigmak          1;
    sigmaEps        1.3;
}

No MRF models present

No finite volume options present
yPlus yPlus write:
    writing object yPlus
    patch splitter y+ : min = 33.4792, max = 57.422, average = 37.5991
    patch back y+ : min = 6.19564, max = 11.6432, average = 9.51038
    patch sides y+ : min = 9.70462, max = 28.4539, average = 22.479


Time = 0.31
Reading field p

Reading field U

Reading/calculating face flux field phi

Selecting incompressible transport model Newtonian
Selecting turbulence model type RAS
Selecting RAS turbulence model kEpsilon
RAS
{
    model           kEpsilon;
    turbulence      on;
    printCoeffs     on;
    Cmu             0.09;
    C1              1.44;
    C2              1.92;
    C3              0;
    sigmak          1;
    sigmaEps        1.3;
}

No MRF models present

No finite volume options present
yPlus yPlus write:
    writing object yPlus
    patch splitter y+ : min = 33.4804, max = 57.4219, average = 37.5992
    patch back y+ : min = 6.1831, max = 11.5751, average = 9.49929
    patch sides y+ : min = 9.70462, max = 28.4664, average = 22.4791


Time = 0.32
Reading field p

Reading field U

Reading/calculating face flux field phi

Selecting incompressible transport model Newtonian
Selecting turbulence model type RAS
Selecting RAS turbulence model kEpsilon
RAS
{
    model           kEpsilon;
    turbulence      on;
    printCoeffs     on;
    Cmu             0.09;
    C1              1.44;
    C2              1.92;
    C3              0;
    sigmak          1;
    sigmaEps        1.3;
}

No MRF models present

No finite volume options present
yPlus yPlus write:
    writing object yPlus
    patch splitter y+ : min = 33.4782, max = 57.4218, average = 37.5992
    patch back y+ : min = 6.1698, max = 11.5466, average = 9.4769
    patch sides y+ : min = 9.70462, max = 28.4542, average = 22.4788


Time = 0.33
Reading field p

Reading field U

Reading/calculating face flux field phi

Selecting incompressible transport model Newtonian
Selecting turbulence model type RAS
Selecting RAS turbulence model kEpsilon
RAS
{
    model           kEpsilon;
    turbulence      on;
    printCoeffs     on;
    Cmu             0.09;
    C1              1.44;
    C2              1.92;
    C3              0;
    sigmak          1;
    sigmaEps        1.3;
}

No MRF models present

No finite volume options present
yPlus yPlus write:
    writing object yPlus
    patch splitter y+ : min = 33.48, max = 57.4212, average = 37.5992
    patch back y+ : min = 6.1605, max = 11.6503, average = 9.49237
    patch sides y+ : min = 9.70462, max = 28.4448, average = 22.4785


Time = 0.34
Reading field p

Reading field U

Reading/calculating face flux field phi

Selecting incompressible transport model Newtonian
Selecting turbulence model type RAS
Selecting RAS turbulence model kEpsilon
RAS
{
    model           kEpsilon;
    turbulence      on;
    printCoeffs     on;
    Cmu             0.09;
    C1              1.44;
    C2              1.92;
    C3              0;
    sigmak          1;
    sigmaEps        1.3;
}

No MRF models present

No finite volume options present
yPlus yPlus write:
    writing object yPlus
    patch splitter y+ : min = 33.4787, max = 57.4223, average = 37.5994
    patch back y+ : min = 6.1521, max = 11.6997, average = 9.51979
    patch sides y+ : min = 9.70461, max = 28.4764, average = 22.478


Time = 0.35
Reading field p

Reading field U

Reading/calculating face flux field phi

Selecting incompressible transport model Newtonian
Selecting turbulence model type RAS
Selecting RAS turbulence model kEpsilon
RAS
{
    model           kEpsilon;
    turbulence      on;
    printCoeffs     on;
    Cmu             0.09;
    C1              1.44;
    C2              1.92;
    C3              0;
    sigmak          1;
    sigmaEps        1.3;
}

No MRF models present

No finite volume options present
yPlus yPlus write:
    writing object yPlus
    patch splitter y+ : min = 33.4799, max = 57.4239, average = 37.5996
    patch back y+ : min = 6.14725, max = 11.5643, average = 9.4939
    patch sides y+ : min = 9.70464, max = 28.5002, average = 22.4771


Time = 0.36
Reading field p

Reading field U

Reading/calculating face flux field phi

Selecting incompressible transport model Newtonian
Selecting turbulence model type RAS
Selecting RAS turbulence model kEpsilon
RAS
{
    model           kEpsilon;
    turbulence      on;
    printCoeffs     on;
    Cmu             0.09;
    C1              1.44;
    C2              1.92;
    C3              0;
    sigmak          1;
    sigmaEps        1.3;
}

No MRF models present

No finite volume options present
yPlus yPlus write:
    writing object yPlus
    patch splitter y+ : min = 33.4803, max = 57.4249, average = 37.5998
    patch back y+ : min = 6.14675, max = 11.5892, average = 9.43535
    patch sides y+ : min = 9.70461, max = 28.5204, average = 22.4755


Time = 0.37
Reading field p

Reading field U

Reading/calculating face flux field phi

Selecting incompressible transport model Newtonian
Selecting turbulence model type RAS
Selecting RAS turbulence model kEpsilon
RAS
{
    model           kEpsilon;
    turbulence      on;
    printCoeffs     on;
    Cmu             0.09;
    C1              1.44;
    C2              1.92;
    C3              0;
    sigmak          1;
    sigmaEps        1.3;
}

No MRF models present

No finite volume options present
yPlus yPlus write:
    writing object yPlus
    patch splitter y+ : min = 33.4769, max = 57.4256, average = 37.6002
    patch back y+ : min = 6.1453, max = 11.6971, average = 9.51311
    patch sides y+ : min = 9.70464, max = 28.5114, average = 22.4729


Time = 0.38
Reading field p

Reading field U

Reading/calculating face flux field phi

Selecting incompressible transport model Newtonian
Selecting turbulence model type RAS
Selecting RAS turbulence model kEpsilon
RAS
{
    model           kEpsilon;
    turbulence      on;
    printCoeffs     on;
    Cmu             0.09;
    C1              1.44;
    C2              1.92;
    C3              0;
    sigmak          1;
    sigmaEps        1.3;
}

No MRF models present

No finite volume options present
yPlus yPlus write:
    writing object yPlus
    patch splitter y+ : min = 33.4775, max = 57.4249, average = 37.6007
    patch back y+ : min = 6.14842, max = 11.5998, average = 9.48988
    patch sides y+ : min = 9.70462, max = 28.4956, average = 22.469


Time = 0.39
Reading field p

Reading field U

Reading/calculating face flux field phi

Selecting incompressible transport model Newtonian
Selecting turbulence model type RAS
Selecting RAS turbulence model kEpsilon
RAS
{
    model           kEpsilon;
    turbulence      on;
    printCoeffs     on;
    Cmu             0.09;
    C1              1.44;
    C2              1.92;
    C3              0;
    sigmak          1;
    sigmaEps        1.3;
}

No MRF models present

No finite volume options present
yPlus yPlus write:
    writing object yPlus
    patch splitter y+ : min = 33.4754, max = 57.4235, average = 37.6014
    patch back y+ : min = 6.1549, max = 11.5049, average = 9.45655
    patch sides y+ : min = 9.70461, max = 28.4937, average = 22.4628


Time = 0.4
Reading field p

Reading field U

Reading/calculating face flux field phi

Selecting incompressible transport model Newtonian
Selecting turbulence model type RAS
Selecting RAS turbulence model kEpsilon
RAS
{
    model           kEpsilon;
    turbulence      on;
    printCoeffs     on;
    Cmu             0.09;
    C1              1.44;
    C2              1.92;
    C3              0;
    sigmak          1;
    sigmaEps        1.3;
}

No MRF models present

No finite volume options present
yPlus yPlus write:
    writing object yPlus
    patch splitter y+ : min = 33.4784, max = 57.426, average = 37.6027
    patch back y+ : min = 6.16964, max = 11.632, average = 9.53244
    patch sides y+ : min = 9.70466, max = 28.5615, average = 22.4539


Time = 0.41
Reading field p

Reading field U

Reading/calculating face flux field phi

Selecting incompressible transport model Newtonian
Selecting turbulence model type RAS
Selecting RAS turbulence model kEpsilon
RAS
{
    model           kEpsilon;
    turbulence      on;
    printCoeffs     on;
    Cmu             0.09;
    C1              1.44;
    C2              1.92;
    C3              0;
    sigmak          1;
    sigmaEps        1.3;
}

No MRF models present

No finite volume options present
yPlus yPlus write:
    writing object yPlus
    patch splitter y+ : min = 33.4798, max = 57.431, average = 37.6043
    patch back y+ : min = 6.18747, max = 11.6954, average = 9.52561
    patch sides y+ : min = 9.70457, max = 28.5943, average = 22.4415


Time = 0.42
Reading field p

Reading field U

Reading/calculating face flux field phi

Selecting incompressible transport model Newtonian
Selecting turbulence model type RAS
Selecting RAS turbulence model kEpsilon
RAS
{
    model           kEpsilon;
    turbulence      on;
    printCoeffs     on;
    Cmu             0.09;
    C1              1.44;
    C2              1.92;
    C3              0;
    sigmak          1;
    sigmaEps        1.3;
}

No MRF models present

No finite volume options present
yPlus yPlus write:
    writing object yPlus
    patch splitter y+ : min = 33.4837, max = 57.4369, average = 37.6066
    patch back y+ : min = 6.21169, max = 11.6294, average = 9.55867
    patch sides y+ : min = 9.70468, max = 28.5634, average = 22.425


Time = 0.43
Reading field p

Reading field U

Reading/calculating face flux field phi

Selecting incompressible transport model Newtonian
Selecting turbulence model type RAS
Selecting RAS turbulence model kEpsilon
RAS
{
    model           kEpsilon;
    turbulence      on;
    printCoeffs     on;
    Cmu             0.09;
    C1              1.44;
    C2              1.92;
    C3              0;
    sigmak          1;
    sigmaEps        1.3;
}

No MRF models present

No finite volume options present
yPlus yPlus write:
    writing object yPlus
    patch splitter y+ : min = 33.4821, max = 57.4414, average = 37.6095
    patch back y+ : min = 6.25287, max = 11.6413, average = 9.59578
    patch sides y+ : min = 9.70457, max = 28.5123, average = 22.4046


Time = 0.44
Reading field p

Reading field U

Reading/calculating face flux field phi

Selecting incompressible transport model Newtonian
Selecting turbulence model type RAS
Selecting RAS turbulence model kEpsilon
RAS
{
    model           kEpsilon;
    turbulence      on;
    printCoeffs     on;
    Cmu             0.09;
    C1              1.44;
    C2              1.92;
    C3              0;
    sigmak          1;
    sigmaEps        1.3;
}

No MRF models present

No finite volume options present
yPlus yPlus write:
    writing object yPlus
    patch splitter y+ : min = 33.4767, max = 57.4442, average = 37.613
    patch back y+ : min = 6.31791, max = 11.6896, average = 9.65028
    patch sides y+ : min = 9.70466, max = 28.4214, average = 22.3801


Time = 0.45
Reading field p

Reading field U

Reading/calculating face flux field phi

Selecting incompressible transport model Newtonian
Selecting turbulence model type RAS
Selecting RAS turbulence model kEpsilon
RAS
{
    model           kEpsilon;
    turbulence      on;
    printCoeffs     on;
    Cmu             0.09;
    C1              1.44;
    C2              1.92;
    C3              0;
    sigmak          1;
    sigmaEps        1.3;
}

No MRF models present

No finite volume options present
yPlus yPlus write:
    writing object yPlus
    patch splitter y+ : min = 33.4762, max = 57.4433, average = 37.6169
    patch back y+ : min = 6.42816, max = 11.6623, average = 9.75415
    patch sides y+ : min = 9.70462, max = 28.4673, average = 22.3526


Time = 0.46
Reading field p

Reading field U

Reading/calculating face flux field phi

Selecting incompressible transport model Newtonian
Selecting turbulence model type RAS
Selecting RAS turbulence model kEpsilon
RAS
{
    model           kEpsilon;
    turbulence      on;
    printCoeffs     on;
    Cmu             0.09;
    C1              1.44;
    C2              1.92;
    C3              0;
    sigmak          1;
    sigmaEps        1.3;
}

No MRF models present

No finite volume options present
yPlus yPlus write:
    writing object yPlus
    patch splitter y+ : min = 33.475, max = 57.4395, average = 37.6208
    patch back y+ : min = 6.59271, max = 11.7142, average = 9.87049
    patch sides y+ : min = 9.70457, max = 28.5037, average = 22.3233


Time = 0.47
Reading field p

Reading field U

Reading/calculating face flux field phi

Selecting incompressible transport model Newtonian
Selecting turbulence model type RAS
Selecting RAS turbulence model kEpsilon
RAS
{
    model           kEpsilon;
    turbulence      on;
    printCoeffs     on;
    Cmu             0.09;
    C1              1.44;
    C2              1.92;
    C3              0;
    sigmak          1;
    sigmaEps        1.3;
}

No MRF models present

No finite volume options present
yPlus yPlus write:
    writing object yPlus
    patch splitter y+ : min = 33.4819, max = 57.4431, average = 37.625
    patch back y+ : min = 6.82843, max = 11.7792, average = 10.0218
    patch sides y+ : min = 9.70471, max = 28.4655, average = 22.2945


Time = 0.48
Reading field p

Reading field U

Reading/calculating face flux field phi

Selecting incompressible transport model Newtonian
Selecting turbulence model type RAS
Selecting RAS turbulence model kEpsilon
RAS
{
    model           kEpsilon;
    turbulence      on;
    printCoeffs     on;
    Cmu             0.09;
    C1              1.44;
    C2              1.92;
    C3              0;
    sigmak          1;
    sigmaEps        1.3;
}

No MRF models present

No finite volume options present
yPlus yPlus write:
    writing object yPlus
    patch splitter y+ : min = 33.49, max = 57.4558, average = 37.6287
    patch back y+ : min = 7.11006, max = 11.7265, average = 10.2307
    patch sides y+ : min = 9.7045, max = 28.4043, average = 22.2691


Time = 0.49
Reading field p

Reading field U

Reading/calculating face flux field phi

Selecting incompressible transport model Newtonian
Selecting turbulence model type RAS
Selecting RAS turbulence model kEpsilon
RAS
{
    model           kEpsilon;
    turbulence      on;
    printCoeffs     on;
    Cmu             0.09;
    C1              1.44;
    C2              1.92;
    C3              0;
    sigmak          1;
    sigmaEps        1.3;
}

No MRF models present

No finite volume options present
yPlus yPlus write:
    writing object yPlus
    patch splitter y+ : min = 33.4963, max = 57.4659, average = 37.6317
    patch back y+ : min = 7.45984, max = 11.9614, average = 10.4651
    patch sides y+ : min = 9.70475, max = 28.322, average = 22.2491


Time = 0.5
Reading field p

Reading field U

Reading/calculating face flux field phi

Selecting incompressible transport model Newtonian
Selecting turbulence model type RAS
Selecting RAS turbulence model kEpsilon
RAS
{
    model           kEpsilon;
    turbulence      on;
    printCoeffs     on;
    Cmu             0.09;
    C1              1.44;
    C2              1.92;
    C3              0;
    sigmak          1;
    sigmaEps        1.3;
}

No MRF models present

No finite volume options present
yPlus yPlus write:
    writing object yPlus
    patch splitter y+ : min = 33.4863, max = 57.4688, average = 37.6336
    patch back y+ : min = 7.86758, max = 12.165, average = 10.6496
    patch sides y+ : min = 9.70454, max = 28.323, average = 22.2349


Time = 0.51
Reading field p

Reading field U

Reading/calculating face flux field phi

Selecting incompressible transport model Newtonian
Selecting turbulence model type RAS
Selecting RAS turbulence model kEpsilon
RAS
{
    model           kEpsilon;
    turbulence      on;
    printCoeffs     on;
    Cmu             0.09;
    C1              1.44;
    C2              1.92;
    C3              0;
    sigmak          1;
    sigmaEps        1.3;
}

No MRF models present

No finite volume options present
yPlus yPlus write:
    writing object yPlus
    patch splitter y+ : min = 33.4758, max = 57.4637, average = 37.6349
    patch back y+ : min = 8.29128, max = 12.4161, average = 10.8413
    patch sides y+ : min = 9.70464, max = 28.4399, average = 22.2246


Time = 0.52
Reading field p

Reading field U

Reading/calculating face flux field phi

Selecting incompressible transport model Newtonian
Selecting turbulence model type RAS
Selecting RAS turbulence model kEpsilon
RAS
{
    model           kEpsilon;
    turbulence      on;
    printCoeffs     on;
    Cmu             0.09;
    C1              1.44;
    C2              1.92;
    C3              0;
    sigmak          1;
    sigmaEps        1.3;
}

No MRF models present

No finite volume options present
yPlus yPlus write:
    writing object yPlus
    patch splitter y+ : min = 33.4765, max = 57.4514, average = 37.6363
    patch back y+ : min = 8.69772, max = 12.587, average = 11.0523
    patch sides y+ : min = 9.70469, max = 28.4817, average = 22.2159


Time = 0.53
Reading field p

Reading field U

Reading/calculating face flux field phi

Selecting incompressible transport model Newtonian
Selecting turbulence model type RAS
Selecting RAS turbulence model kEpsilon
RAS
{
    model           kEpsilon;
    turbulence      on;
    printCoeffs     on;
    Cmu             0.09;
    C1              1.44;
    C2              1.92;
    C3              0;
    sigmak          1;
    sigmaEps        1.3;
}

No MRF models present

No finite volume options present
yPlus yPlus write:
    writing object yPlus
    patch splitter y+ : min = 33.4829, max = 57.4546, average = 37.6382
    patch back y+ : min = 9.05532, max = 12.7325, average = 11.1521
    patch sides y+ : min = 9.7045, max = 28.4579, average = 22.2074


Time = 0.54
Reading field p

Reading field U

Reading/calculating face flux field phi

Selecting incompressible transport model Newtonian
Selecting turbulence model type RAS
Selecting RAS turbulence model kEpsilon
RAS
{
    model           kEpsilon;
    turbulence      on;
    printCoeffs     on;
    Cmu             0.09;
    C1              1.44;
    C2              1.92;
    C3              0;
    sigmak          1;
    sigmaEps        1.3;
}

No MRF models present

No finite volume options present
yPlus yPlus write:
    writing object yPlus
    patch splitter y+ : min = 33.5003, max = 57.4706, average = 37.6401
    patch back y+ : min = 9.31347, max = 13.1222, average = 11.2824
    patch sides y+ : min = 9.70478, max = 28.3631, average = 22.2007


Time = 0.55
Reading field p

Reading field U

Reading/calculating face flux field phi

Selecting incompressible transport model Newtonian
Selecting turbulence model type RAS
Selecting RAS turbulence model kEpsilon
RAS
{
    model           kEpsilon;
    turbulence      on;
    printCoeffs     on;
    Cmu             0.09;
    C1              1.44;
    C2              1.92;
    C3              0;
    sigmak          1;
    sigmaEps        1.3;
}

No MRF models present

No finite volume options present
yPlus yPlus write:
    writing object yPlus
    patch splitter y+ : min = 33.496, max = 57.4778, average = 37.6408
    patch back y+ : min = 9.55402, max = 13.4465, average = 11.4964
    patch sides y+ : min = 9.7045, max = 28.2942, average = 22.1975


Time = 0.56
Reading field p

Reading field U

Reading/calculating face flux field phi

Selecting incompressible transport model Newtonian
Selecting turbulence model type RAS
Selecting RAS turbulence model kEpsilon
RAS
{
    model           kEpsilon;
    turbulence      on;
    printCoeffs     on;
    Cmu             0.09;
    C1              1.44;
    C2              1.92;
    C3              0;
    sigmak          1;
    sigmaEps        1.3;
}

No MRF models present

No finite volume options present
yPlus yPlus write:
    writing object yPlus
    patch splitter y+ : min = 33.4792, max = 57.4743, average = 37.6406
    patch back y+ : min = 9.71141, max = 13.6297, average = 11.5187
    patch sides y+ : min = 9.70468, max = 28.4536, average = 22.1971


Time = 0.57
Reading field p

Reading field U

Reading/calculating face flux field phi

Selecting incompressible transport model Newtonian
Selecting turbulence model type RAS
Selecting RAS turbulence model kEpsilon
RAS
{
    model           kEpsilon;
    turbulence      on;
    printCoeffs     on;
    Cmu             0.09;
    C1              1.44;
    C2              1.92;
    C3              0;
    sigmak          1;
    sigmaEps        1.3;
}

No MRF models present

No finite volume options present
yPlus yPlus write:
    writing object yPlus
    patch splitter y+ : min = 33.4749, max = 57.4611, average = 37.6405
    patch back y+ : min = 9.86762, max = 13.6376, average = 11.528
    patch sides y+ : min = 9.70466, max = 28.5244, average = 22.1969


Time = 0.58
Reading field p

Reading field U

Reading/calculating face flux field phi

Selecting incompressible transport model Newtonian
Selecting turbulence model type RAS
Selecting RAS turbulence model kEpsilon
RAS
{
    model           kEpsilon;
    turbulence      on;
    printCoeffs     on;
    Cmu             0.09;
    C1              1.44;
    C2              1.92;
    C3              0;
    sigmak          1;
    sigmaEps        1.3;
}

No MRF models present

No finite volume options present
yPlus yPlus write:
    writing object yPlus
    patch splitter y+ : min = 33.4785, max = 57.4507, average = 37.6414
    patch back y+ : min = 10.0005, max = 13.4475, average = 11.5762
    patch sides y+ : min = 9.7045, max = 28.5159, average = 22.1941


Time = 0.59
Reading field p

Reading field U

Reading/calculating face flux field phi

Selecting incompressible transport model Newtonian
Selecting turbulence model type RAS
Selecting RAS turbulence model kEpsilon
RAS
{
    model           kEpsilon;
    turbulence      on;
    printCoeffs     on;
    Cmu             0.09;
    C1              1.44;
    C2              1.92;
    C3              0;
    sigmak          1;
    sigmaEps        1.3;
}

No MRF models present

No finite volume options present
yPlus yPlus write:
    writing object yPlus
    patch splitter y+ : min = 33.4957, max = 57.4695, average = 37.6429
    patch back y+ : min = 10.0469, max = 13.5972, average = 11.6244
    patch sides y+ : min = 9.70478, max = 28.4159, average = 22.1898


Time = 0.6
Reading field p

Reading field U

Reading/calculating face flux field phi

Selecting incompressible transport model Newtonian
Selecting turbulence model type RAS
Selecting RAS turbulence model kEpsilon
RAS
{
    model           kEpsilon;
    turbulence      on;
    printCoeffs     on;
    Cmu             0.09;
    C1              1.44;
    C2              1.92;
    C3              0;
    sigmak          1;
    sigmaEps        1.3;
}

No MRF models present

No finite volume options present
yPlus yPlus write:
    writing object yPlus
    patch splitter y+ : min = 33.5026, max = 57.4799, average = 37.6434
    patch back y+ : min = 10.0828, max = 13.8845, average = 11.6793
    patch sides y+ : min = 9.70449, max = 28.3195, average = 22.1874


Time = 0.61
Reading field p

Reading field U

Reading/calculating face flux field phi

Selecting incompressible transport model Newtonian
Selecting turbulence model type RAS
Selecting RAS turbulence model kEpsilon
RAS
{
    model           kEpsilon;
    turbulence      on;
    printCoeffs     on;
    Cmu             0.09;
    C1              1.44;
    C2              1.92;
    C3              0;
    sigmak          1;
    sigmaEps        1.3;
}

No MRF models present

No finite volume options present
yPlus yPlus write:
    writing object yPlus
    patch splitter y+ : min = 33.4828, max = 57.4788, average = 37.6428
    patch back y+ : min = 10.1651, max = 14.0416, average = 11.6999
    patch sides y+ : min = 9.70471, max = 28.4458, average = 22.1885


Time = 0.62
Reading field p

Reading field U

Reading/calculating face flux field phi

Selecting incompressible transport model Newtonian
Selecting turbulence model type RAS
Selecting RAS turbulence model kEpsilon
RAS
{
    model           kEpsilon;
    turbulence      on;
    printCoeffs     on;
    Cmu             0.09;
    C1              1.44;
    C2              1.92;
    C3              0;
    sigmak          1;
    sigmaEps        1.3;
}

No MRF models present

No finite volume options present
yPlus yPlus write:
    writing object yPlus
    patch splitter y+ : min = 33.475, max = 57.4664, average = 37.642
    patch back y+ : min = 10.241, max = 14.0189, average = 11.7247
    patch sides y+ : min = 9.70464, max = 28.535, average = 22.1907


Time = 0.63
Reading field p

Reading field U

Reading/calculating face flux field phi

Selecting incompressible transport model Newtonian
Selecting turbulence model type RAS
Selecting RAS turbulence model kEpsilon
RAS
{
    model           kEpsilon;
    turbulence      on;
    printCoeffs     on;
    Cmu             0.09;
    C1              1.44;
    C2              1.92;
    C3              0;
    sigmak          1;
    sigmaEps        1.3;
}

No MRF models present

No finite volume options present
yPlus yPlus write:
    writing object yPlus
    patch splitter y+ : min = 33.4759, max = 57.449, average = 37.6423
    patch back y+ : min = 10.3172, max = 13.8086, average = 11.7832
    patch sides y+ : min = 9.70452, max = 28.5458, average = 22.1905


Time = 0.64
Reading field p

Reading field U

Reading/calculating face flux field phi

Selecting incompressible transport model Newtonian
Selecting turbulence model type RAS
Selecting RAS turbulence model kEpsilon
RAS
{
    model           kEpsilon;
    turbulence      on;
    printCoeffs     on;
    Cmu             0.09;
    C1              1.44;
    C2              1.92;
    C3              0;
    sigmak          1;
    sigmaEps        1.3;
}

No MRF models present

No finite volume options present
yPlus yPlus write:
    writing object yPlus
    patch splitter y+ : min = 33.4917, max = 57.4668, average = 37.6436
    patch back y+ : min = 10.2995, max = 13.7214, average = 11.7309
    patch sides y+ : min = 9.70478, max = 28.4514, average = 22.1872


Time = 0.65
Reading field p

Reading field U

Reading/calculating face flux field phi

Selecting incompressible transport model Newtonian
Selecting turbulence model type RAS
Selecting RAS turbulence model kEpsilon
RAS
{
    model           kEpsilon;
    turbulence      on;
    printCoeffs     on;
    Cmu             0.09;
    C1              1.44;
    C2              1.92;
    C3              0;
    sigmak          1;
    sigmaEps        1.3;
}

No MRF models present

No finite volume options present
yPlus yPlus write:
    writing object yPlus
    patch splitter y+ : min = 33.5073, max = 57.4796, average = 37.6442
    patch back y+ : min = 10.2786, max = 14.0005, average = 11.6985
    patch sides y+ : min = 9.70447, max = 28.3438, average = 22.1846


Time = 0.66
Reading field p

Reading field U

Reading/calculating face flux field phi

Selecting incompressible transport model Newtonian
Selecting turbulence model type RAS
Selecting RAS turbulence model kEpsilon
RAS
{
    model           kEpsilon;
    turbulence      on;
    printCoeffs     on;
    Cmu             0.09;
    C1              1.44;
    C2              1.92;
    C3              0;
    sigmak          1;
    sigmaEps        1.3;
}

No MRF models present

No finite volume options present
yPlus yPlus write:
    writing object yPlus
    patch splitter y+ : min = 33.4861, max = 57.4808, average = 37.6436
    patch back y+ : min = 10.3138, max = 14.1668, average = 11.7348
    patch sides y+ : min = 9.70473, max = 28.4208, average = 22.1856


Time = 0.67
Reading field p

Reading field U

Reading/calculating face flux field phi

Selecting incompressible transport model Newtonian
Selecting turbulence model type RAS
Selecting RAS turbulence model kEpsilon
RAS
{
    model           kEpsilon;
    turbulence      on;
    printCoeffs     on;
    Cmu             0.09;
    C1              1.44;
    C2              1.92;
    C3              0;
    sigmak          1;
    sigmaEps        1.3;
}

No MRF models present

No finite volume options present
yPlus yPlus write:
    writing object yPlus
    patch splitter y+ : min = 33.4759, max = 57.47, average = 37.6426
    patch back y+ : min = 10.3682, max = 14.1586, average = 11.8209
    patch sides y+ : min = 9.70462, max = 28.5249, average = 22.1885


Time = 0.68
Reading field p

Reading field U

Reading/calculating face flux field phi

Selecting incompressible transport model Newtonian
Selecting turbulence model type RAS
Selecting RAS turbulence model kEpsilon
RAS
{
    model           kEpsilon;
    turbulence      on;
    printCoeffs     on;
    Cmu             0.09;
    C1              1.44;
    C2              1.92;
    C3              0;
    sigmak          1;
    sigmaEps        1.3;
}

No MRF models present

No finite volume options present
yPlus yPlus write:
    writing object yPlus
    patch splitter y+ : min = 33.4743, max = 57.4528, average = 37.6425
    patch back y+ : min = 10.4174, max = 13.9492, average = 11.7816
    patch sides y+ : min = 9.70454, max = 28.5556, average = 22.1896


Time = 0.69
Reading field p

Reading field U

Reading/calculating face flux field phi

Selecting incompressible transport model Newtonian
Selecting turbulence model type RAS
Selecting RAS turbulence model kEpsilon
RAS
{
    model           kEpsilon;
    turbulence      on;
    printCoeffs     on;
    Cmu             0.09;
    C1              1.44;
    C2              1.92;
    C3              0;
    sigmak          1;
    sigmaEps        1.3;
}

No MRF models present

No finite volume options present
yPlus yPlus write:
    writing object yPlus
    patch splitter y+ : min = 33.4883, max = 57.4635, average = 37.6437
    patch back y+ : min = 10.387, max = 13.722, average = 11.8
    patch sides y+ : min = 9.70478, max = 28.4743, average = 22.187


Time = 0.7
Reading field p

Reading field U

Reading/calculating face flux field phi

Selecting incompressible transport model Newtonian
Selecting turbulence model type RAS
Selecting RAS turbulence model kEpsilon
RAS
{
    model           kEpsilon;
    turbulence      on;
    printCoeffs     on;
    Cmu             0.09;
    C1              1.44;
    C2              1.92;
    C3              0;
    sigmak          1;
    sigmaEps        1.3;
}

No MRF models present

No finite volume options present
yPlus yPlus write:
    writing object yPlus
    patch splitter y+ : min = 33.5058, max = 57.4781, average = 37.6444
    patch back y+ : min = 10.3483, max = 14.0028, average = 11.7853
    patch sides y+ : min = 9.70447, max = 28.3655, average = 22.184


Time = 0.71
Reading field p

Reading field U

Reading/calculating face flux field phi

Selecting incompressible transport model Newtonian
Selecting turbulence model type RAS
Selecting RAS turbulence model kEpsilon
RAS
{
    model           kEpsilon;
    turbulence      on;
    printCoeffs     on;
    Cmu             0.09;
    C1              1.44;
    C2              1.92;
    C3              0;
    sigmak          1;
    sigmaEps        1.3;
}

No MRF models present

No finite volume options present
yPlus yPlus write:
    writing object yPlus
    patch splitter y+ : min = 33.4896, max = 57.4818, average = 37.644
    patch back y+ : min = 10.3593, max = 14.1896, average = 11.8147
    patch sides y+ : min = 9.70475, max = 28.4005, average = 22.1844


Time = 0.72
Reading field p

Reading field U

Reading/calculating face flux field phi

Selecting incompressible transport model Newtonian
Selecting turbulence model type RAS
Selecting RAS turbulence model kEpsilon
RAS
{
    model           kEpsilon;
    turbulence      on;
    printCoeffs     on;
    Cmu             0.09;
    C1              1.44;
    C2              1.92;
    C3              0;
    sigmak          1;
    sigmaEps        1.3;
}

No MRF models present

No finite volume options present
yPlus yPlus write:
    writing object yPlus
    patch splitter y+ : min = 33.4773, max = 57.4729, average = 37.6429
    patch back y+ : min = 10.4006, max = 14.2122, average = 11.7824
    patch sides y+ : min = 9.70461, max = 28.5174, average = 22.1874


Time = 0.73
Reading field p

Reading field U

Reading/calculating face flux field phi

Selecting incompressible transport model Newtonian
Selecting turbulence model type RAS
Selecting RAS turbulence model kEpsilon
RAS
{
    model           kEpsilon;
    turbulence      on;
    printCoeffs     on;
    Cmu             0.09;
    C1              1.44;
    C2              1.92;
    C3              0;
    sigmak          1;
    sigmaEps        1.3;
}

No MRF models present

No finite volume options present
yPlus yPlus write:
    writing object yPlus
    patch splitter y+ : min = 33.4732, max = 57.4564, average = 37.6425
    patch back y+ : min = 10.4415, max = 14.0264, average = 11.8021
    patch sides y+ : min = 9.70456, max = 28.564, average = 22.1893


Time = 0.74
Reading field p

Reading field U

Reading/calculating face flux field phi

Selecting incompressible transport model Newtonian
Selecting turbulence model type RAS
Selecting RAS turbulence model kEpsilon
RAS
{
    model           kEpsilon;
    turbulence      on;
    printCoeffs     on;
    Cmu             0.09;
    C1              1.44;
    C2              1.92;
    C3              0;
    sigmak          1;
    sigmaEps        1.3;
}

No MRF models present

No finite volume options present
yPlus yPlus write:
    writing object yPlus
    patch splitter y+ : min = 33.4853, max = 57.4599, average = 37.6435
    patch back y+ : min = 10.4242, max = 13.7344, average = 11.8089
    patch sides y+ : min = 9.70476, max = 28.498, average = 22.1873


Time = 0.75
Reading field p

Reading field U

Reading/calculating face flux field phi

Selecting incompressible transport model Newtonian
Selecting turbulence model type RAS
Selecting RAS turbulence model kEpsilon
RAS
{
    model           kEpsilon;
    turbulence      on;
    printCoeffs     on;
    Cmu             0.09;
    C1              1.44;
    C2              1.92;
    C3              0;
    sigmak          1;
    sigmaEps        1.3;
}

No MRF models present

No finite volume options present
yPlus yPlus write:
    writing object yPlus
    patch splitter y+ : min = 33.502, max = 57.4762, average = 37.6444
    patch back y+ : min = 10.3691, max = 13.9692, average = 11.8299
    patch sides y+ : min = 9.70445, max = 28.386, average = 22.1841


Time = 0.76
Reading field p

Reading field U

Reading/calculating face flux field phi

Selecting incompressible transport model Newtonian
Selecting turbulence model type RAS
Selecting RAS turbulence model kEpsilon
RAS
{
    model           kEpsilon;
    turbulence      on;
    printCoeffs     on;
    Cmu             0.09;
    C1              1.44;
    C2              1.92;
    C3              0;
    sigmak          1;
    sigmaEps        1.3;
}

No MRF models present

No finite volume options present
yPlus yPlus write:
    writing object yPlus
    patch splitter y+ : min = 33.4932, max = 57.4823, average = 37.6442
    patch back y+ : min = 10.3648, max = 14.1769, average = 11.827
    patch sides y+ : min = 9.70475, max = 28.3674, average = 22.1838


Time = 0.77
Reading field p

Reading field U

Reading/calculating face flux field phi

Selecting incompressible transport model Newtonian
Selecting turbulence model type RAS
Selecting RAS turbulence model kEpsilon
RAS
{
    model           kEpsilon;
    turbulence      on;
    printCoeffs     on;
    Cmu             0.09;
    C1              1.44;
    C2              1.92;
    C3              0;
    sigmak          1;
    sigmaEps        1.3;
}

No MRF models present

No finite volume options present
yPlus yPlus write:
    writing object yPlus
    patch splitter y+ : min = 33.4792, max = 57.4753, average = 37.6431
    patch back y+ : min = 10.4056, max = 14.2349, average = 11.8554
    patch sides y+ : min = 9.70459, max = 28.4982, average = 22.1867


Time = 0.78
Reading field p

Reading field U

Reading/calculating face flux field phi

Selecting incompressible transport model Newtonian
Selecting turbulence model type RAS
Selecting RAS turbulence model kEpsilon
RAS
{
    model           kEpsilon;
    turbulence      on;
    printCoeffs     on;
    Cmu             0.09;
    C1              1.44;
    C2              1.92;
    C3              0;
    sigmak          1;
    sigmaEps        1.3;
}

No MRF models present

No finite volume options present
yPlus yPlus write:
    writing object yPlus
    patch splitter y+ : min = 33.4726, max = 57.4599, average = 37.6425
    patch back y+ : min = 10.442, max = 14.0818, average = 11.8181
    patch sides y+ : min = 9.70457, max = 28.5633, average = 22.1891


Time = 0.79
Reading field p

Reading field U

Reading/calculating face flux field phi

Selecting incompressible transport model Newtonian
Selecting turbulence model type RAS
Selecting RAS turbulence model kEpsilon
RAS
{
    model           kEpsilon;
    turbulence      on;
    printCoeffs     on;
    Cmu             0.09;
    C1              1.44;
    C2              1.92;
    C3              0;
    sigmak          1;
    sigmaEps        1.3;
}

No MRF models present

No finite volume options present
yPlus yPlus write:
    writing object yPlus
    patch splitter y+ : min = 33.4825, max = 57.4561, average = 37.6433
    patch back y+ : min = 10.4447, max = 13.7985, average = 11.8391
    patch sides y+ : min = 9.70476, max = 28.5154, average = 22.1879


Time = 0.8
Reading field p

Reading field U

Reading/calculating face flux field phi

Selecting incompressible transport model Newtonian
Selecting turbulence model type RAS
Selecting RAS turbulence model kEpsilon
RAS
{
    model           kEpsilon;
    turbulence      on;
    printCoeffs     on;
    Cmu             0.09;
    C1              1.44;
    C2              1.92;
    C3              0;
    sigmak          1;
    sigmaEps        1.3;
}

No MRF models present

No finite volume options present
yPlus yPlus write:
    writing object yPlus
    patch splitter y+ : min = 33.4982, max = 57.4737, average = 37.6443
    patch back y+ : min = 10.3855, max = 13.9237, average = 11.7796
    patch sides y+ : min = 9.70445, max = 28.4096, average = 22.1846


Time = 0.81
Reading field p

Reading field U

Reading/calculating face flux field phi

Selecting incompressible transport model Newtonian
Selecting turbulence model type RAS
Selecting RAS turbulence model kEpsilon
RAS
{
    model           kEpsilon;
    turbulence      on;
    printCoeffs     on;
    Cmu             0.09;
    C1              1.44;
    C2              1.92;
    C3              0;
    sigmak          1;
    sigmaEps        1.3;
}

No MRF models present

No finite volume options present
yPlus yPlus write:
    writing object yPlus
    patch splitter y+ : min = 33.4968, max = 57.4822, average = 37.6444
    patch back y+ : min = 10.3721, max = 14.1502, average = 11.7982
    patch sides y+ : min = 9.70476, max = 28.3388, average = 22.1835


Time = 0.82
Reading field p

Reading field U

Reading/calculating face flux field phi

Selecting incompressible transport model Newtonian
Selecting turbulence model type RAS
Selecting RAS turbulence model kEpsilon
RAS
{
    model           kEpsilon;
    turbulence      on;
    printCoeffs     on;
    Cmu             0.09;
    C1              1.44;
    C2              1.92;
    C3              0;
    sigmak          1;
    sigmaEps        1.3;
}

No MRF models present

No finite volume options present
yPlus yPlus write:
    writing object yPlus
    patch splitter y+ : min = 33.4814, max = 57.4774, average = 37.6433
    patch back y+ : min = 10.4, max = 14.2434, average = 11.8297
    patch sides y+ : min = 9.70457, max = 28.4795, average = 22.186


Time = 0.83
Reading field p

Reading field U

Reading/calculating face flux field phi

Selecting incompressible transport model Newtonian
Selecting turbulence model type RAS
Selecting RAS turbulence model kEpsilon
RAS
{
    model           kEpsilon;
    turbulence      on;
    printCoeffs     on;
    Cmu             0.09;
    C1              1.44;
    C2              1.92;
    C3              0;
    sigmak          1;
    sigmaEps        1.3;
}

No MRF models present

No finite volume options present
yPlus yPlus write:
    writing object yPlus
    patch splitter y+ : min = 33.4725, max = 57.4632, average = 37.6425
    patch back y+ : min = 10.4439, max = 14.1264, average = 11.8118
    patch sides y+ : min = 9.70459, max = 28.5607, average = 22.1888


Time = 0.84
Reading field p

Reading field U

Reading/calculating face flux field phi

Selecting incompressible transport model Newtonian
Selecting turbulence model type RAS
Selecting RAS turbulence model kEpsilon
RAS
{
    model           kEpsilon;
    turbulence      on;
    printCoeffs     on;
    Cmu             0.09;
    C1              1.44;
    C2              1.92;
    C3              0;
    sigmak          1;
    sigmaEps        1.3;
}

No MRF models present

No finite volume options present
yPlus yPlus write:
    writing object yPlus
    patch splitter y+ : min = 33.4802, max = 57.4522, average = 37.6431
    patch back y+ : min = 10.4643, max = 13.8585, average = 11.7999
    patch sides y+ : min = 9.70475, max = 28.5297, average = 22.1883


Time = 0.85
Reading field p

Reading field U

Reading/calculating face flux field phi

Selecting incompressible transport model Newtonian
Selecting turbulence model type RAS
Selecting RAS turbulence model kEpsilon
RAS
{
    model           kEpsilon;
    turbulence      on;
    printCoeffs     on;
    Cmu             0.09;
    C1              1.44;
    C2              1.92;
    C3              0;
    sigmak          1;
    sigmaEps        1.3;
}

No MRF models present

No finite volume options present
yPlus yPlus write:
    writing object yPlus
    patch splitter y+ : min = 33.4945, max = 57.471, average = 37.6441
    patch back y+ : min = 10.3953, max = 13.8737, average = 11.7618
    patch sides y+ : min = 9.70445, max = 28.4336, average = 22.1851


Time = 0.86
Reading field p

Reading field U

Reading/calculating face flux field phi

Selecting incompressible transport model Newtonian
Selecting turbulence model type RAS
Selecting RAS turbulence model kEpsilon
RAS
{
    model           kEpsilon;
    turbulence      on;
    printCoeffs     on;
    Cmu             0.09;
    C1              1.44;
    C2              1.92;
    C3              0;
    sigmak          1;
    sigmaEps        1.3;
}

No MRF models present

No finite volume options present
yPlus yPlus write:
    writing object yPlus
    patch splitter y+ : min = 33.5007, max = 57.4816, average = 37.6445
    patch back y+ : min = 10.3711, max = 14.116, average = 11.8078
    patch sides y+ : min = 9.70478, max = 28.3145, average = 22.1834


Time = 0.87
Reading field p

Reading field U

Reading/calculating face flux field phi

Selecting incompressible transport model Newtonian
Selecting turbulence model type RAS
Selecting RAS turbulence model kEpsilon
RAS
{
    model           kEpsilon;
    turbulence      on;
    printCoeffs     on;
    Cmu             0.09;
    C1              1.44;
    C2              1.92;
    C3              0;
    sigmak          1;
    sigmaEps        1.3;
}

No MRF models present

No finite volume options present
yPlus yPlus write:
    writing object yPlus
    patch splitter y+ : min = 33.4841, max = 57.4792, average = 37.6435
    patch back y+ : min = 10.3888, max = 14.2427, average = 11.7563
    patch sides y+ : min = 9.70456, max = 28.4566, average = 22.1854


Time = 0.88
Reading field p

Reading field U

Reading/calculating face flux field phi

Selecting incompressible transport model Newtonian
Selecting turbulence model type RAS
Selecting RAS turbulence model kEpsilon
RAS
{
    model           kEpsilon;
    turbulence      on;
    printCoeffs     on;
    Cmu             0.09;
    C1              1.44;
    C2              1.92;
    C3              0;
    sigmak          1;
    sigmaEps        1.3;
}

No MRF models present

No finite volume options present
yPlus yPlus write:
    writing object yPlus
    patch splitter y+ : min = 33.4728, max = 57.4664, average = 37.6426
    patch back y+ : min = 10.4371, max = 14.1632, average = 11.7768
    patch sides y+ : min = 9.70461, max = 28.5544, average = 22.1884


Time = 0.89
Reading field p

Reading field U

Reading/calculating face flux field phi

Selecting incompressible transport model Newtonian
Selecting turbulence model type RAS
Selecting RAS turbulence model kEpsilon
RAS
{
    model           kEpsilon;
    turbulence      on;
    printCoeffs     on;
    Cmu             0.09;
    C1              1.44;
    C2              1.92;
    C3              0;
    sigmak          1;
    sigmaEps        1.3;
}

No MRF models present

No finite volume options present
yPlus yPlus write:
    writing object yPlus
    patch splitter y+ : min = 33.4782, max = 57.4483, average = 37.6429
    patch back y+ : min = 10.4658, max = 13.916, average = 11.8265
    patch sides y+ : min = 9.70473, max = 28.5432, average = 22.1887


Time = 0.9
Reading field p

Reading field U

Reading/calculating face flux field phi

Selecting incompressible transport model Newtonian
Selecting turbulence model type RAS
Selecting RAS turbulence model kEpsilon
RAS
{
    model           kEpsilon;
    turbulence      on;
    printCoeffs     on;
    Cmu             0.09;
    C1              1.44;
    C2              1.92;
    C3              0;
    sigmak          1;
    sigmaEps        1.3;
}

No MRF models present

No finite volume options present
yPlus yPlus write:
    writing object yPlus
    patch splitter y+ : min = 33.491, max = 57.4679, average = 37.644
    patch back y+ : min = 10.4051, max = 13.8217, average = 11.8516
    patch sides y+ : min = 9.70447, max = 28.4556, average = 22.1857


Time = 0.91
Reading field p

Reading field U

Reading/calculating face flux field phi

Selecting incompressible transport model Newtonian
Selecting turbulence model type RAS
Selecting RAS turbulence model kEpsilon
RAS
{
    model           kEpsilon;
    turbulence      on;
    printCoeffs     on;
    Cmu             0.09;
    C1              1.44;
    C2              1.92;
    C3              0;
    sigmak          1;
    sigmaEps        1.3;
}

No MRF models present

No finite volume options present
yPlus yPlus write:
    writing object yPlus
    patch splitter y+ : min = 33.5045, max = 57.4806, average = 37.6446
    patch back y+ : min = 10.3721, max = 14.0767, average = 11.7852
    patch sides y+ : min = 9.70478, max = 28.3317, average = 22.1834


Time = 0.92
Reading field p

Reading field U

Reading/calculating face flux field phi

Selecting incompressible transport model Newtonian
Selecting turbulence model type RAS
Selecting RAS turbulence model kEpsilon
RAS
{
    model           kEpsilon;
    turbulence      on;
    printCoeffs     on;
    Cmu             0.09;
    C1              1.44;
    C2              1.92;
    C3              0;
    sigmak          1;
    sigmaEps        1.3;
}

No MRF models present

No finite volume options present
yPlus yPlus write:
    writing object yPlus
    patch splitter y+ : min = 33.487, max = 57.4805, average = 37.6438
    patch back y+ : min = 10.3822, max = 14.2341, average = 11.8176
    patch sides y+ : min = 9.70454, max = 28.43, average = 22.1848


Time = 0.93
Reading field p

Reading field U

Reading/calculating face flux field phi

Selecting incompressible transport model Newtonian
Selecting turbulence model type RAS
Selecting RAS turbulence model kEpsilon
RAS
{
    model           kEpsilon;
    turbulence      on;
    printCoeffs     on;
    Cmu             0.09;
    C1              1.44;
    C2              1.92;
    C3              0;
    sigmak          1;
    sigmaEps        1.3;
}

No MRF models present

No finite volume options present
yPlus yPlus write:
    writing object yPlus
    patch splitter y+ : min = 33.4737, max = 57.4694, average = 37.6427
    patch back y+ : min = 10.4316, max = 14.1926, average = 11.8051
    patch sides y+ : min = 9.70462, max = 28.5427, average = 22.188


Time = 0.94
Reading field p

Reading field U

Reading/calculating face flux field phi

Selecting incompressible transport model Newtonian
Selecting turbulence model type RAS
Selecting RAS turbulence model kEpsilon
RAS
{
    model           kEpsilon;
    turbulence      on;
    printCoeffs     on;
    Cmu             0.09;
    C1              1.44;
    C2              1.92;
    C3              0;
    sigmak          1;
    sigmaEps        1.3;
}

No MRF models present

No finite volume options present
yPlus yPlus write:
    writing object yPlus
    patch splitter y+ : min = 33.4765, max = 57.4515, average = 37.6428
    patch back y+ : min = 10.4603, max = 13.9716, average = 11.8016
    patch sides y+ : min = 9.70473, max = 28.5489, average = 22.189


Time = 0.95
Reading field p

Reading field U

Reading/calculating face flux field phi

Selecting incompressible transport model Newtonian
Selecting turbulence model type RAS
Selecting RAS turbulence model kEpsilon
RAS
{
    model           kEpsilon;
    turbulence      on;
    printCoeffs     on;
    Cmu             0.09;
    C1              1.44;
    C2              1.92;
    C3              0;
    sigmak          1;
    sigmaEps        1.3;
}

No MRF models present

No finite volume options present
yPlus yPlus write:
    writing object yPlus
    patch splitter y+ : min = 33.4876, max = 57.4645, average = 37.6437
    patch back y+ : min = 10.42, max = 13.769, average = 11.7888
    patch sides y+ : min = 9.70447, max = 28.4772, average = 22.1864


Time = 0.96
Reading field p

Reading field U

Reading/calculating face flux field phi

Selecting incompressible transport model Newtonian
Selecting turbulence model type RAS
Selecting RAS turbulence model kEpsilon
RAS
{
    model           kEpsilon;
    turbulence      on;
    printCoeffs     on;
    Cmu             0.09;
    C1              1.44;
    C2              1.92;
    C3              0;
    sigmak          1;
    sigmaEps        1.3;
}

No MRF models present

No finite volume options present
yPlus yPlus write:
    writing object yPlus
    patch splitter y+ : min = 33.5084, max = 57.4791, average = 37.6446
    patch back y+ : min = 10.3762, max = 14.0337, average = 11.7863
    patch sides y+ : min = 9.70478, max = 28.3509, average = 22.1836


Time = 0.97
Reading field p

Reading field U

Reading/calculating face flux field phi

Selecting incompressible transport model Newtonian
Selecting turbulence model type RAS
Selecting RAS turbulence model kEpsilon
RAS
{
    model           kEpsilon;
    turbulence      on;
    printCoeffs     on;
    Cmu             0.09;
    C1              1.44;
    C2              1.92;
    C3              0;
    sigmak          1;
    sigmaEps        1.3;
}

No MRF models present

No finite volume options present
yPlus yPlus write:
    writing object yPlus
    patch splitter y+ : min = 33.4903, max = 57.4814, average = 37.644
    patch back y+ : min = 10.3744, max = 14.2185, average = 11.7963
    patch sides y+ : min = 9.70452, max = 28.4049, average = 22.1843


Time = 0.98
Reading field p

Reading field U

Reading/calculating face flux field phi

Selecting incompressible transport model Newtonian
Selecting turbulence model type RAS
Selecting RAS turbulence model kEpsilon
RAS
{
    model           kEpsilon;
    turbulence      on;
    printCoeffs     on;
    Cmu             0.09;
    C1              1.44;
    C2              1.92;
    C3              0;
    sigmak          1;
    sigmaEps        1.3;
}

No MRF models present

No finite volume options present
yPlus yPlus write:
    writing object yPlus
    patch splitter y+ : min = 33.4749, max = 57.4722, average = 37.6428
    patch back y+ : min = 10.4211, max = 14.2151, average = 11.8135
    patch sides y+ : min = 9.70464, max = 28.5316, average = 22.1874


Time = 0.99
Reading field p

Reading field U

Reading/calculating face flux field phi

Selecting incompressible transport model Newtonian
Selecting turbulence model type RAS
Selecting RAS turbulence model kEpsilon
RAS
{
    model           kEpsilon;
    turbulence      on;
    printCoeffs     on;
    Cmu             0.09;
    C1              1.44;
    C2              1.92;
    C3              0;
    sigmak          1;
    sigmaEps        1.3;
}

No MRF models present

No finite volume options present
yPlus yPlus write:
    writing object yPlus
    patch splitter y+ : min = 33.4753, max = 57.455, average = 37.6427
    patch back y+ : min = 10.4491, max = 14.0243, average = 11.8248
    patch sides y+ : min = 9.70471, max = 28.5571, average = 22.1891


Time = 1
Reading field p

Reading field U

Reading/calculating face flux field phi

Selecting incompressible transport model Newtonian
Selecting turbulence model type RAS
Selecting RAS turbulence model kEpsilon
RAS
{
    model           kEpsilon;
    turbulence      on;
    printCoeffs     on;
    Cmu             0.09;
    C1              1.44;
    C2              1.92;
    C3              0;
    sigmak          1;
    sigmaEps        1.3;
}

No MRF models present

No finite volume options present
yPlus yPlus write:
    writing object yPlus
    patch splitter y+ : min = 33.4845, max = 57.461, average = 37.6435
    patch back y+ : min = 10.4304, max = 13.7162, average = 11.8381
    patch sides y+ : min = 9.70447, max = 28.499, average = 22.187


End

