/*---------------------------------------------------------------------------*\
  =========                 |
  \\      /  F ield         | OpenFOAM: The Open Source CFD Toolbox
   \\    /   O peration     | Website:  https://openfoam.org
    \\  /    A nd           | Version:  8
     \\/     M anipulation  |
\*---------------------------------------------------------------------------*/
Build  : 8
Exec   : decomposePar
Date   : Dec 30 2020
Time   : 14:38:20
Host   : "edo20-HP-Pavilion-Notebook"
PID    : 40740
I/O    : uncollated
Case   : /home/edo20/Piscaglia/Shared_docker_folder/Shared_CTTP/testEdo/3D/combustorRhoPimpleMidday
nProcs : 1
sigFpe : Enabling floating point exception trapping (FOAM_SIGFPE).
fileModificationChecking : Monitoring run-time modified files using timeStampMaster (fileModificationSkew 10)
allowSystemOperations : Allowing user-supplied system call operations

// * * * * * * * * * * * * * * * * * * * * * * * * * * * * * * * * * * * * * //
Create time



Decomposing mesh region0

Create mesh

Calculating distribution of cells
Selecting decompositionMethod simple

Finished decomposition in 0.02 s

Calculating original mesh data

Distributing cells to processors

Distributing faces to processors

Distributing points to processors

Constructing processor meshes

Processor 0
    Number of cells = 9292
    Number of faces shared with processor 1 = 1241
    Number of faces shared with processor 2 = 1241
    Number of processor patches = 2
    Number of processor faces = 2482
    Number of boundary faces = 1038

Processor 1
    Number of cells = 8933
    Number of faces shared with processor 0 = 1241
    Number of faces shared with processor 2 = 1
    Number of faces shared with processor 3 = 1241
    Number of processor patches = 3
    Number of processor faces = 2483
    Number of boundary faces = 987

Processor 2
    Number of cells = 8933
    Number of faces shared with processor 0 = 1241
    Number of faces shared with processor 1 = 1
    Number of faces shared with processor 3 = 1241
    Number of processor patches = 3
    Number of processor faces = 2483
    Number of boundary faces = 987

Processor 3
    Number of cells = 9292
    Number of faces shared with processor 1 = 1241
    Number of faces shared with processor 2 = 1241
    Number of processor patches = 2
    Number of processor faces = 2482
    Number of boundary faces = 1038

Number of processor faces = 4965
Max number of cells = 9292 (1.9698217% above average 9112.5)
Max number of processor patches = 3 (20% above average 2.5)
Max number of faces between processors = 2483 (0.020140987% above average 2482.5)

Time = 0

Processor 0: field transfer
Processor 1: field transfer
Processor 2: field transfer
Processor 3: field transfer

End

