/*---------------------------------------------------------------------------*\
  =========                 |
  \\      /  F ield         | OpenFOAM: The Open Source CFD Toolbox
   \\    /   O peration     | Website:  https://openfoam.org
    \\  /    A nd           | Version:  8
     \\/     M anipulation  |
\*---------------------------------------------------------------------------*/
Build  : 8
Exec   : snappyHexMesh -parallel
Date   : Dec 30 2020
Time   : 14:38:20
Host   : "edo20-HP-Pavilion-Notebook"
PID    : 40748
I/O    : uncollated
Case   : /home/edo20/Piscaglia/Shared_docker_folder/Shared_CTTP/testEdo/3D/combustorRhoPimpleMidday
nProcs : 4
Slaves : 
3
(
"edo20-HP-Pavilion-Notebook.40749"
"edo20-HP-Pavilion-Notebook.40750"
"edo20-HP-Pavilion-Notebook.40751"
)

Pstream initialized with:
    floatTransfer      : 0
    nProcsSimpleSum    : 0
    commsType          : nonBlocking
    polling iterations : 0
sigFpe : Enabling floating point exception trapping (FOAM_SIGFPE).
fileModificationChecking : Monitoring run-time modified files using timeStampMaster (fileModificationSkew 10)
allowSystemOperations : Allowing user-supplied system call operations

// * * * * * * * * * * * * * * * * * * * * * * * * * * * * * * * * * * * * * //
Create time

Create mesh for time = 0

Read mesh in = 0.04 s

Overall mesh bounding box  : (-0.11954336 -0.3 -0.11954336) (0.11954336 0.5 0.11954336)
Relative tolerance         : 1e-10
Absolute matching distance : 8.6851881e-11

Reading refinement surfaces.
Read refinement surfaces in = 0 s

Reading refinement shells.
Refinement level 3 for all cells inside refinementCylinderSplitter
Refinement level 2 for all cells inside refinementConeFront
Refinement level 2 for all cells inside refinementCylinderRear
Read refinement shells in = 0 s

Setting refinement level of surface to be consistent with shells.
Checked shell refinement in = 0 s

Reading features.
Read edgeMesh combustor.eMesh
    points      : 464
    edges       : 468
    boundingBox : (-0.12 -0.30000001 -0.12) (0.12 0.5 0.12)

Refinement level according to distance to "combustor.eMesh" (464 points, 468 edges).
    level 3 for all cells within 0 metre.
Read features in = 0 s


Determining initial surface intersections
-----------------------------------------

Edge intersection testing:
    Number of edges             : 111375
    Number of edges to retest   : 111375
    Number of intersected edges : 118
Calculated surface intersections in = 0.07 s

Initial mesh : cells:36450  faces:111375  points:38584
Cells per refinement level:
    0	36450

Adding patches for surface regions
----------------------------------

Patch Type                Region                        
----- ----                ------                        
combustor:

3     wall                splitterFront                 
4     wall                splitterRight                 
5     wall                splitterRear                  
6     wall                splitterLeft                  
7     wall                splitterBottom                
8     wall                splitterTop                   
0     wall                outerWalls                    

Added patches in = 0.03 s

[1] Selecting decompositionMethod simple
[2] Selecting decompositionMethod simple
[3] Selecting decompositionMethod simple
[0] Selecting decompositionMethod simple
Layer thickness specified as first layer and expansion ratio.

Refinement phase
----------------

Found point (0 0.2 0) in cell 999 on processor 2

Feature refinement iteration 0
------------------------------

Marked for refinement due to explicit features             : 66 cells.
Determined cells to refine in = 0.06 s
Selected for feature refinement : 66 cells (out of 36450)
Edge intersection testing:
    Number of edges             : 113073
    Number of edges to retest   : 2648
    Number of intersected edges : 264
Refined mesh in = 0.09 s
After refinement feature refinement iteration 0 : cells:36912  faces:113073  points:39396
Cells per refinement level:
    0	36384
    1	528
Skipping balancing since max unbalance 0.021348071 is less than allowable 0.1

Feature refinement iteration 1
------------------------------

Marked for refinement due to explicit features             : 152 cells.
Determined cells to refine in = 0.07 s
Selected for feature refinement : 240 cells (out of 36912)
Edge intersection testing:
    Number of edges             : 119151
    Number of edges to retest   : 8838
    Number of intersected edges : 1254
Refined mesh in = 0.08 s
After refinement feature refinement iteration 1 : cells:38592  faces:119151  points:42222
Cells per refinement level:
    0	36296
    1	1080
    2	1216
Skipping balancing since max unbalance 0.02694859 is less than allowable 0.1

Feature refinement iteration 2
------------------------------

Marked for refinement due to explicit features             : 308 cells.
Determined cells to refine in = 0.07 s
Selected for feature refinement : 568 cells (out of 38592)
Edge intersection testing:
    Number of edges             : 133353
    Number of edges to retest   : 21844
    Number of intersected edges : 3210
Refined mesh in = 0.08 s
After refinement feature refinement iteration 2 : cells:42568  faces:133353  points:48698
Cells per refinement level:
    0	36268
    1	1072
    2	2764
    3	2464
Skipping balancing since max unbalance 0.038244691 is less than allowable 0.1

Feature refinement iteration 3
------------------------------

Marked for refinement due to explicit features             : 0 cells.
Determined cells to refine in = 0.08 s
Selected for feature refinement : 0 cells (out of 42568)
Stopping refining since too few cells selected.


Surface refinement iteration 0
------------------------------

Marked for refinement due to surface intersection          : 0 cells.
Determined cells to refine in = 0 s
Selected for refinement : 0 cells (out of 42568)
Stopping refining since too few cells selected.


Removing mesh beyond surface intersections
------------------------------------------

Found point (0 0.2 0) in global region 0 out of 2 regions.
Keeping all cells in region 0 containing point (0 0.2 0)
Selected for keeping : 42536 cells.
Edge intersection testing:
    Number of edges             : 133325
    Number of edges to retest   : 136
    Number of intersected edges : 3210

Shell refinement iteration 0
----------------------------

Marked for refinement due to distance to explicit features : 0 cells.
Marked for refinement due to refinement shells             : 10167 cells.
Determined cells to refine in = 0.1 s
Selected for internal refinement : 10237 cells (out of 42536)
Edge intersection testing:
    Number of edges             : 357311
    Number of edges to retest   : 275377
    Number of intersected edges : 5484
Refined mesh in = 0.24 s
After refinement shell refinement iteration 0 : cells:114195  faces:357311  points:129245
Cells per refinement level:
    0	29771
    1	52040
    2	8064
    3	24320
Skipping balancing since max unbalance 0.027602634 is less than allowable 0.1

Shell refinement iteration 1
----------------------------

Marked for refinement due to distance to explicit features : 0 cells.
Marked for refinement due to refinement shells             : 55360 cells.
Determined cells to refine in = 0.04 s
Selected for internal refinement : 56826 cells (out of 114195)
Edge intersection testing:
    Number of edges             : 1572533
    Number of edges to retest   : 1461790
    Number of intersected edges : 7172
Refined mesh in = 0.97 s
After refinement shell refinement iteration 1 : cells:511977  faces:1572533  points:549066
Cells per refinement level:
    0	28369
    1	15608
    2	381472
    3	86528
Skipping balancing since max unbalance 0.031149898 is less than allowable 0.1

Shell refinement iteration 2
----------------------------

Marked for refinement due to distance to explicit features : 0 cells.
Marked for refinement due to refinement shells             : 96307 cells.
Determined cells to refine in = 0.13 s
Selected for internal refinement : 98486 cells (out of 511977)
Edge intersection testing:
    Number of edges             : 3657995
    Number of edges to retest   : 2545059
    Number of intersected edges : 8208
Refined mesh in = 2.13 s
After refinement shell refinement iteration 2 : cells:1201379  faces:3657995  points:1255692
Cells per refinement level:
    0	27917
    1	15577
    2	316261
    3	841624
Skipping balancing since max unbalance 0.075130517 is less than allowable 0.1

Shell refinement iteration 3
----------------------------

Marked for refinement due to distance to explicit features : 0 cells.
Marked for refinement due to refinement shells             : 5375 cells.
Determined cells to refine in = 0.24 s
Selected for internal refinement : 5432 cells (out of 1201379)
Edge intersection testing:
    Number of edges             : 3771881
    Number of edges to retest   : 283796
    Number of intersected edges : 8208
Refined mesh in = 1.78 s
After refinement shell refinement iteration 3 : cells:1239403  faces:3771881  points:1293477
Cells per refinement level:
    0	27901
    1	15664
    2	311214
    3	884624
Skipping balancing since max unbalance 0.072351138 is less than allowable 0.1

Shell refinement iteration 4
----------------------------

Marked for refinement due to distance to explicit features : 0 cells.
Marked for refinement due to refinement shells             : 113 cells.
Determined cells to refine in = 0.23 s
Selected for internal refinement : 113 cells (out of 1239403)
Edge intersection testing:
    Number of edges             : 3774023
    Number of edges to retest   : 11686
    Number of intersected edges : 8208
Refined mesh in = 1.74 s
After refinement shell refinement iteration 4 : cells:1240194  faces:3774023  points:1294036
Cells per refinement level:
    0	27901
    1	15664
    2	311101
    3	885528
Skipping balancing since max unbalance 0.072243653 is less than allowable 0.1

Shell refinement iteration 5
----------------------------

Marked for refinement due to distance to explicit features : 0 cells.
Marked for refinement due to refinement shells             : 40 cells.
Determined cells to refine in = 0.22 s
Selected for internal refinement : 40 cells (out of 1240194)
Edge intersection testing:
    Number of edges             : 3774782
    Number of edges to retest   : 4125
    Number of intersected edges : 8208
Refined mesh in = 1.64 s
After refinement shell refinement iteration 5 : cells:1240474  faces:3774782  points:1294236
Cells per refinement level:
    0	27901
    1	15664
    2	311061
    3	885848
Skipping balancing since max unbalance 0.07227249 is less than allowable 0.1

Shell refinement iteration 6
----------------------------

Marked for refinement due to distance to explicit features : 0 cells.
Marked for refinement due to refinement shells             : 13 cells.
Determined cells to refine in = 0.22 s
Selected for internal refinement : 13 cells (out of 1240474)
Edge intersection testing:
    Number of edges             : 3775007
    Number of edges to retest   : 1510
    Number of intersected edges : 8208
Refined mesh in = 1.62 s
After refinement shell refinement iteration 6 : cells:1240565  faces:3775007  points:1294282
Cells per refinement level:
    0	27901
    1	15664
    2	311048
    3	885952
Skipping balancing since max unbalance 0.072296149 is less than allowable 0.1

Shell refinement iteration 7
----------------------------

Marked for refinement due to distance to explicit features : 0 cells.
Marked for refinement due to refinement shells             : 3 cells.
Determined cells to refine in = 0.22 s
Selected for internal refinement : 3 cells (out of 1240565)
Stopping refining since too few cells selected.


Dangling coarse cells refinement iteration 0
--------------------------------------------

Determined cells to refine in = 0.01 s
Selected for refinement : 71 cells (out of 1240565)
Edge intersection testing:
    Number of edges             : 3776072
    Number of edges to retest   : 8323
    Number of intersected edges : 8208
Refined mesh in = 1.63 s
After refinement coarse cell refinement iteration 0 : cells:1241062  faces:3776072  points:1294424
Cells per refinement level:
    0	27901
    1	15664
    2	310977
    3	886520
Skipping balancing since max unbalance 0.072125441 is less than allowable 0.1

Dangling coarse cells refinement iteration 1
--------------------------------------------

Determined cells to refine in = 0.17 s
Selected for refinement : 0 cells (out of 1241062)
Stopping refining since too few cells selected.


Dangling coarse cells refinement iteration 0
--------------------------------------------

Determined cells to refine in = 0.01 s
Selected for refinement : 0 cells (out of 1241062)
Stopping refining since too few cells selected.


Splitting mesh at surface intersections
---------------------------------------

Introducing baffles for 8208 faces that are intersected by the surface.

Edge intersection testing:
    Number of edges             : 3784280
    Number of edges to retest   : 48144
    Number of intersected edges : 16416
Created baffles in = 1.29 s


After introducing baffles : cells:1241062  faces:3784280  points:1294424
Cells per refinement level:
    0	27901
    1	15664
    2	310977
    3	886520

Introducing baffles to block off problem cells
----------------------------------------------

markFacesOnProblemCells : marked 366 additional internal faces to be converted into baffles.
Analyzed problem cells in = 0.89 s


Introducing baffles to delete problem cells.

Edge intersection testing:
    Number of edges             : 3784646
    Number of edges to retest   : 1862
    Number of intersected edges : 16416
Created baffles in = 1.41 s


After introducing baffles : cells:1241062  faces:3784646  points:1294426
Cells per refinement level:
    0	27901
    1	15664
    2	310977
    3	886520

Remove unreachable sections of mesh
-----------------------------------

Keeping all cells in region 0 containing point (0 0.2 0)
Selected for keeping : 1224522 cells.
Edge intersection testing:
    Number of edges             : 3730284
    Number of edges to retest   : 0
    Number of intersected edges : 8208
Split mesh in = 7.32 s


After subsetting : cells:1224522  faces:3730284  points:1281648
Cells per refinement level:
    0	27901
    1	15664
    2	310977
    3	869980

Handling cells with snap problems
---------------------------------

Introducing baffles for 8208 faces that are intersected by the surface.

Edge intersection testing:
    Number of edges             : 3730284
    Number of edges to retest   : 25252
    Number of intersected edges : 8208
Created baffles in = 1.3 s


After introducing baffles : cells:1224522  faces:3730284  points:1281648
Cells per refinement level:
    0	27901
    1	15664
    2	310977
    3	869980

Introducing baffles to block off problem cells
----------------------------------------------

markFacesOnProblemCells : marked 0 additional internal faces to be converted into baffles.
Analyzed problem cells in = 0.83 s


Introducing baffles to delete problem cells.

Edge intersection testing:
    Number of edges             : 3730284
    Number of edges to retest   : 0
    Number of intersected edges : 8208
Created baffles in = 1.18 s


After introducing baffles : cells:1224522  faces:3730284  points:1281648
Cells per refinement level:
    0	27901
    1	15664
    2	310977
    3	869980

Remove unreachable sections of mesh
-----------------------------------

Keeping all cells in region 0 containing point (0 0.2 0)
Selected for keeping : 1224522 cells.
Edge intersection testing:
    Number of edges             : 3730284
    Number of edges to retest   : 0
    Number of intersected edges : 8208
Split mesh in = 7.07 s


After subsetting : cells:1224522  faces:3730284  points:1281648
Cells per refinement level:
    0	27901
    1	15664
    2	310977
    3	869980

Merge free-standing baffles
---------------------------

freeStandingBaffles : detected 0 free-standing baffles out of 0

Detected free-standing baffles : 0
Merged free-standing baffles in = 0.43 s


dupNonManifoldPoints : Found : 0 non-manifold points (out of 1334320)
Edge intersection testing:
    Number of edges             : 3730284
    Number of edges to retest   : 0
    Number of intersected edges : 8208
Detected unsplittable baffles : 0

Merge refined boundary faces
----------------------------

Merging 0 sets of faces.

No faces merged ...

Merging all points on surface that
- are used by only two boundary faces and
- make an angle with a cosine of more than 0.70710678.

No straight edges simplified and no points removed ...

Doing final balancing
---------------------

Found 0 zoned faces to keep together.
Found 0 separated coupled faces to keep together.
Refined mesh : cells:1224522  faces:3730284  points:1281648
Cells per refinement level:
    0	27901
    1	15664
    2	310977
    3	869980
Writing mesh to time 1e-05
Wrote mesh in = 6.42 s.
Mesh refined in = 42.01 s.

Morphing phase
--------------


Snapping to features in 20 iterations ...
Constructing mesh displacer ...
Using mesh parameters 
{
    maxNonOrtho     65;
    maxBoundarySkewness 20;
    maxInternalSkewness 4;
    maxConcave      80;
    minVol          1e-13;
    minTetQuality   1e-15;
    minArea         -1;
    minTwist        0.02;
    minDeterminant  0.001;
    minFaceWeight   0.05;
    minVolRatio     0.01;
    minTriangleTwist -1;
    nSmoothScale    4;
    errorReduction  0.75;
    relaxed
    {
        maxNonOrtho     75;
        maxBoundarySkewness 25;
        maxInternalSkewness 8;
    }
}


Checking initial mesh ...
Checking faces in error :
    non-orthogonality > 65  degrees                        : 0
    faces with face pyramid volume < 1e-13                 : 0
    faces with face-decomposition tet quality < 1e-15      : 0
    faces with concavity > 80  degrees                     : 0
    faces with skewness > 4   (internal) or 20  (boundary) : 0
    faces with interpolation weights (0..1)  < 0.05        : 0
    faces with volume ratio of neighbour cells < 0.01      : 0
    faces with face twist < 0.02                           : 0
    faces on cells with determinant < 0.001                : 0
Detected 0 illegal faces (concave, zero area or negative cell pyramid volume)
Checked initial mesh in = 1.13 s


Smoothing patch points ...
Smoothing iteration 0
Found 0 non-manifold point(s).

Scaling iteration 0
Moving mesh using displacement scaling : min:1  max:1
Checking faces in error :
    non-orthogonality > 65  degrees                        : 0
    faces with face pyramid volume < 1e-13                 : 0
    faces with face-decomposition tet quality < 1e-15      : 0
    faces with concavity > 80  degrees                     : 0
    faces with skewness > 4   (internal) or 20  (boundary) : 0
    faces with interpolation weights (0..1)  < 0.05        : 0
    faces with volume ratio of neighbour cells < 0.01      : 0
    faces with face twist < 0.02                           : 0
    faces on cells with determinant < 0.001                : 0
Successfully moved mesh

Smoothing iteration 1
Found 0 non-manifold point(s).

Scaling iteration 0
Moving mesh using displacement scaling : min:1  max:1
Checking faces in error :
    non-orthogonality > 65  degrees                        : 0
    faces with face pyramid volume < 1e-13                 : 0
    faces with face-decomposition tet quality < 1e-15      : 0
    faces with concavity > 80  degrees                     : 0
    faces with skewness > 4   (internal) or 20  (boundary) : 0
    faces with interpolation weights (0..1)  < 0.05        : 0
    faces with volume ratio of neighbour cells < 0.01      : 0
    faces with face twist < 0.02                           : 0
    faces on cells with determinant < 0.001                : 0
Successfully moved mesh

Smoothing iteration 2
Found 0 non-manifold point(s).

Scaling iteration 0
Moving mesh using displacement scaling : min:1  max:1
Checking faces in error :
    non-orthogonality > 65  degrees                        : 6808
    faces with face pyramid volume < 1e-13                 : 6552
    faces with face-decomposition tet quality < 1e-15      : 0
    faces with concavity > 80  degrees                     : 0
    faces with skewness > 4   (internal) or 20  (boundary) : 0
    faces with interpolation weights (0..1)  < 0.05        : 0
    faces with volume ratio of neighbour cells < 0.01      : 0
    faces with face twist < 0.02                           : 0
    faces on cells with determinant < 0.001                : 0

Scaling iteration 1
Moving mesh using displacement scaling : min:0.75  max:1
Checking faces in error :
    non-orthogonality > 65  degrees                        : 5376
    faces with face pyramid volume < 1e-13                 : 3632
    faces with face-decomposition tet quality < 1e-15      : 16
    faces with concavity > 80  degrees                     : 0
    faces with skewness > 4   (internal) or 20  (boundary) : 0
    faces with interpolation weights (0..1)  < 0.05        : 1080
    faces with volume ratio of neighbour cells < 0.01      : 0
    faces with face twist < 0.02                           : 704
    faces on cells with determinant < 0.001                : 2552

Scaling iteration 2
Moving mesh using displacement scaling : min:0.5625  max:1
Checking faces in error :
    non-orthogonality > 65  degrees                        : 3224
    faces with face pyramid volume < 1e-13                 : 2163
    faces with face-decomposition tet quality < 1e-15      : 16
    faces with concavity > 80  degrees                     : 0
    faces with skewness > 4   (internal) or 20  (boundary) : 0
    faces with interpolation weights (0..1)  < 0.05        : 704
    faces with volume ratio of neighbour cells < 0.01      : 0
    faces with face twist < 0.02                           : 16
    faces on cells with determinant < 0.001                : 704

Scaling iteration 3
Moving mesh using displacement scaling : min:0.421875  max:1
Checking faces in error :
    non-orthogonality > 65  degrees                        : 2493
    faces with face pyramid volume < 1e-13                 : 716
    faces with face-decomposition tet quality < 1e-15      : 13
    faces with concavity > 80  degrees                     : 0
    faces with skewness > 4   (internal) or 20  (boundary) : 0
    faces with interpolation weights (0..1)  < 0.05        : 714
    faces with volume ratio of neighbour cells < 0.01      : 0
    faces with face twist < 0.02                           : 10
    faces on cells with determinant < 0.001                : 2078

Scaling iteration 4
Moving mesh using displacement scaling : min:0.31640625  max:1
Checking faces in error :
    non-orthogonality > 65  degrees                        : 1071
    faces with face pyramid volume < 1e-13                 : 688
    faces with face-decomposition tet quality < 1e-15      : 725
    faces with concavity > 80  degrees                     : 0
    faces with skewness > 4   (internal) or 20  (boundary) : 0
    faces with interpolation weights (0..1)  < 0.05        : 0
    faces with volume ratio of neighbour cells < 0.01      : 0
    faces with face twist < 0.02                           : 714
    faces on cells with determinant < 0.001                : 26

Scaling iteration 5
Moving mesh using displacement scaling : min:0.23730469  max:1
Checking faces in error :
    non-orthogonality > 65  degrees                        : 704
    faces with face pyramid volume < 1e-13                 : 0
    faces with face-decomposition tet quality < 1e-15      : 0
    faces with concavity > 80  degrees                     : 0
    faces with skewness > 4   (internal) or 20  (boundary) : 0
    faces with interpolation weights (0..1)  < 0.05        : 0
    faces with volume ratio of neighbour cells < 0.01      : 0
    faces with face twist < 0.02                           : 704
    faces on cells with determinant < 0.001                : 1728

Scaling iteration 6
Moving mesh using displacement scaling : min:0.17797852  max:1
Checking faces in error :
    non-orthogonality > 65  degrees                        : 0
    faces with face pyramid volume < 1e-13                 : 0
    faces with face-decomposition tet quality < 1e-15      : 0
    faces with concavity > 80  degrees                     : 0
    faces with skewness > 4   (internal) or 20  (boundary) : 0
    faces with interpolation weights (0..1)  < 0.05        : 0
    faces with volume ratio of neighbour cells < 0.01      : 0
    faces with face twist < 0.02                           : 0
    faces on cells with determinant < 0.001                : 0
Successfully moved mesh

Smoothing iteration 3
Found 0 non-manifold point(s).

Scaling iteration 0
Moving mesh using displacement scaling : min:1  max:1
Checking faces in error :
    non-orthogonality > 65  degrees                        : 6808
    faces with face pyramid volume < 1e-13                 : 6552
    faces with face-decomposition tet quality < 1e-15      : 0
    faces with concavity > 80  degrees                     : 0
    faces with skewness > 4   (internal) or 20  (boundary) : 0
    faces with interpolation weights (0..1)  < 0.05        : 0
    faces with volume ratio of neighbour cells < 0.01      : 0
    faces with face twist < 0.02                           : 0
    faces on cells with determinant < 0.001                : 0

Scaling iteration 1
Moving mesh using displacement scaling : min:0.75  max:1
Checking faces in error :
    non-orthogonality > 65  degrees                        : 6808
    faces with face pyramid volume < 1e-13                 : 6552
    faces with face-decomposition tet quality < 1e-15      : 0
    faces with concavity > 80  degrees                     : 0
    faces with skewness > 4   (internal) or 20  (boundary) : 0
    faces with interpolation weights (0..1)  < 0.05        : 0
    faces with volume ratio of neighbour cells < 0.01      : 0
    faces with face twist < 0.02                           : 0
    faces on cells with determinant < 0.001                : 0

Scaling iteration 2
Moving mesh using displacement scaling : min:0.5625  max:1
Checking faces in error :
    non-orthogonality > 65  degrees                        : 6808
    faces with face pyramid volume < 1e-13                 : 6552
    faces with face-decomposition tet quality < 1e-15      : 0
    faces with concavity > 80  degrees                     : 0
    faces with skewness > 4   (internal) or 20  (boundary) : 0
    faces with interpolation weights (0..1)  < 0.05        : 0
    faces with volume ratio of neighbour cells < 0.01      : 0
    faces with face twist < 0.02                           : 0
    faces on cells with determinant < 0.001                : 0

Scaling iteration 3
Moving mesh using displacement scaling : min:0.421875  max:1
Checking faces in error :
    non-orthogonality > 65  degrees                        : 6808
    faces with face pyramid volume < 1e-13                 : 6552
    faces with face-decomposition tet quality < 1e-15      : 0
    faces with concavity > 80  degrees                     : 0
    faces with skewness > 4   (internal) or 20  (boundary) : 0
    faces with interpolation weights (0..1)  < 0.05        : 0
    faces with volume ratio of neighbour cells < 0.01      : 0
    faces with face twist < 0.02                           : 0
    faces on cells with determinant < 0.001                : 0

Scaling iteration 4
Moving mesh using displacement scaling : min:0.31640625  max:1
Checking faces in error :
    non-orthogonality > 65  degrees                        : 7562
    faces with face pyramid volume < 1e-13                 : 3662
    faces with face-decomposition tet quality < 1e-15      : 8
    faces with concavity > 80  degrees                     : 0
    faces with skewness > 4   (internal) or 20  (boundary) : 0
    faces with interpolation weights (0..1)  < 0.05        : 704
    faces with volume ratio of neighbour cells < 0.01      : 0
    faces with face twist < 0.02                           : 720
    faces on cells with determinant < 0.001                : 704

Scaling iteration 5
Moving mesh using displacement scaling : min:0.23730469  max:1
Checking faces in error :
    non-orthogonality > 65  degrees                        : 2512
    faces with face pyramid volume < 1e-13                 : 736
    faces with face-decomposition tet quality < 1e-15      : 6
    faces with concavity > 80  degrees                     : 0
    faces with skewness > 4   (internal) or 20  (boundary) : 0
    faces with interpolation weights (0..1)  < 0.05        : 2520
    faces with volume ratio of neighbour cells < 0.01      : 0
    faces with face twist < 0.02                           : 710
    faces on cells with determinant < 0.001                : 6840

Scaling iteration 6
Moving mesh using displacement scaling : min:0.17797852  max:1
Checking faces in error :
    non-orthogonality > 65  degrees                        : 1438
    faces with face pyramid volume < 1e-13                 : 725
    faces with face-decomposition tet quality < 1e-15      : 10
    faces with concavity > 80  degrees                     : 0
    faces with skewness > 4   (internal) or 20  (boundary) : 0
    faces with interpolation weights (0..1)  < 0.05        : 2512
    faces with volume ratio of neighbour cells < 0.01      : 0
    faces with face twist < 0.02                           : 10
    faces on cells with determinant < 0.001                : 4577

Scaling iteration 7
Moving mesh using displacement scaling : min:0.13348389  max:1
Checking faces in error :
    non-orthogonality > 65  degrees                        : 1080
    faces with face pyramid volume < 1e-13                 : 3
    faces with face-decomposition tet quality < 1e-15      : 728
    faces with concavity > 80  degrees                     : 0
    faces with skewness > 4   (internal) or 20  (boundary) : 0
    faces with interpolation weights (0..1)  < 0.05        : 1739
    faces with volume ratio of neighbour cells < 0.01      : 0
    faces with face twist < 0.02                           : 720
    faces on cells with determinant < 0.001                : 45

Scaling iteration 8
Moving mesh using displacement scaling : min:0.10011292  max:1
Checking faces in error :
    non-orthogonality > 65  degrees                        : 1080
    faces with face pyramid volume < 1e-13                 : 0
    faces with face-decomposition tet quality < 1e-15      : 728
    faces with concavity > 80  degrees                     : 0
    faces with skewness > 4   (internal) or 20  (boundary) : 0
    faces with interpolation weights (0..1)  < 0.05        : 352
    faces with volume ratio of neighbour cells < 0.01      : 0
    faces with face twist < 0.02                           : 720
    faces on cells with determinant < 0.001                : 720

Scaling iteration 9
Moving mesh using displacement scaling : min:0.075084686  max:1
Checking faces in error :
    non-orthogonality > 65  degrees                        : 1072
    faces with face pyramid volume < 1e-13                 : 0
    faces with face-decomposition tet quality < 1e-15      : 720
    faces with concavity > 80  degrees                     : 0
    faces with skewness > 4   (internal) or 20  (boundary) : 0
    faces with interpolation weights (0..1)  < 0.05        : 0
    faces with volume ratio of neighbour cells < 0.01      : 0
    faces with face twist < 0.02                           : 720
    faces on cells with determinant < 0.001                : 736

Scaling iteration 10
Moving mesh using displacement scaling : min:0.056313515  max:1
Checking faces in error :
    non-orthogonality > 65  degrees                        : 720
    faces with face pyramid volume < 1e-13                 : 0
    faces with face-decomposition tet quality < 1e-15      : 0
    faces with concavity > 80  degrees                     : 0
    faces with skewness > 4   (internal) or 20  (boundary) : 0
    faces with interpolation weights (0..1)  < 0.05        : 0
    faces with volume ratio of neighbour cells < 0.01      : 0
    faces with face twist < 0.02                           : 694
    faces on cells with determinant < 0.001                : 1749

Scaling iteration 11
Moving mesh using displacement scaling : min:0.042235136  max:1
Checking faces in error :
    non-orthogonality > 65  degrees                        : 704
    faces with face pyramid volume < 1e-13                 : 0
    faces with face-decomposition tet quality < 1e-15      : 0
    faces with concavity > 80  degrees                     : 0
    faces with skewness > 4   (internal) or 20  (boundary) : 0
    faces with interpolation weights (0..1)  < 0.05        : 6
    faces with volume ratio of neighbour cells < 0.01      : 0
    faces with face twist < 0.02                           : 0
    faces on cells with determinant < 0.001                : 0

Scaling iteration 12
Moving mesh using displacement scaling : min:0.031676352  max:1
Checking faces in error :
    non-orthogonality > 65  degrees                        : 0
    faces with face pyramid volume < 1e-13                 : 0
    faces with face-decomposition tet quality < 1e-15      : 0
    faces with concavity > 80  degrees                     : 0
    faces with skewness > 4   (internal) or 20  (boundary) : 0
    faces with interpolation weights (0..1)  < 0.05        : 0
    faces with volume ratio of neighbour cells < 0.01      : 0
    faces with face twist < 0.02                           : 0
    faces on cells with determinant < 0.001                : 0
Successfully moved mesh

Smoothing iteration 4
Found 0 non-manifold point(s).

Scaling iteration 0
Moving mesh using displacement scaling : min:1  max:1
Checking faces in error :
    non-orthogonality > 65  degrees                        : 6808
    faces with face pyramid volume < 1e-13                 : 6552
    faces with face-decomposition tet quality < 1e-15      : 0
    faces with concavity > 80  degrees                     : 0
    faces with skewness > 4   (internal) or 20  (boundary) : 0
    faces with interpolation weights (0..1)  < 0.05        : 0
    faces with volume ratio of neighbour cells < 0.01      : 0
    faces with face twist < 0.02                           : 0
    faces on cells with determinant < 0.001                : 0

Scaling iteration 1
Moving mesh using displacement scaling : min:0.75  max:1
Checking faces in error :
    non-orthogonality > 65  degrees                        : 6808
    faces with face pyramid volume < 1e-13                 : 6552
    faces with face-decomposition tet quality < 1e-15      : 0
    faces with concavity > 80  degrees                     : 0
    faces with skewness > 4   (internal) or 20  (boundary) : 0
    faces with interpolation weights (0..1)  < 0.05        : 0
    faces with volume ratio of neighbour cells < 0.01      : 0
    faces with face twist < 0.02                           : 0
    faces on cells with determinant < 0.001                : 0

Scaling iteration 2
Moving mesh using displacement scaling : min:0.5625  max:1
Checking faces in error :
    non-orthogonality > 65  degrees                        : 6808
    faces with face pyramid volume < 1e-13                 : 6552
    faces with face-decomposition tet quality < 1e-15      : 0
    faces with concavity > 80  degrees                     : 0
    faces with skewness > 4   (internal) or 20  (boundary) : 0
    faces with interpolation weights (0..1)  < 0.05        : 0
    faces with volume ratio of neighbour cells < 0.01      : 0
    faces with face twist < 0.02                           : 0
    faces on cells with determinant < 0.001                : 0

Scaling iteration 3
Moving mesh using displacement scaling : min:0.421875  max:1
Checking faces in error :
    non-orthogonality > 65  degrees                        : 6808
    faces with face pyramid volume < 1e-13                 : 6552
    faces with face-decomposition tet quality < 1e-15      : 0
    faces with concavity > 80  degrees                     : 0
    faces with skewness > 4   (internal) or 20  (boundary) : 0
    faces with interpolation weights (0..1)  < 0.05        : 0
    faces with volume ratio of neighbour cells < 0.01      : 0
    faces with face twist < 0.02                           : 0
    faces on cells with determinant < 0.001                : 0

Scaling iteration 4
Moving mesh using displacement scaling : min:0.31640625  max:1
Checking faces in error :
    non-orthogonality > 65  degrees                        : 6808
    faces with face pyramid volume < 1e-13                 : 6552
    faces with face-decomposition tet quality < 1e-15      : 0
    faces with concavity > 80  degrees                     : 0
    faces with skewness > 4   (internal) or 20  (boundary) : 0
    faces with interpolation weights (0..1)  < 0.05        : 0
    faces with volume ratio of neighbour cells < 0.01      : 0
    faces with face twist < 0.02                           : 0
    faces on cells with determinant < 0.001                : 0

Scaling iteration 5
Moving mesh using displacement scaling : min:0.23730469  max:1
Checking faces in error :
    non-orthogonality > 65  degrees                        : 8943
    faces with face pyramid volume < 1e-13                 : 4414
    faces with face-decomposition tet quality < 1e-15      : 3
    faces with concavity > 80  degrees                     : 0
    faces with skewness > 4   (internal) or 20  (boundary) : 0
    faces with interpolation weights (0..1)  < 0.05        : 0
    faces with volume ratio of neighbour cells < 0.01      : 0
    faces with face twist < 0.02                           : 0
    faces on cells with determinant < 0.001                : 0

Scaling iteration 6
Moving mesh using displacement scaling : min:0.17797852  max:1
Checking faces in error :
    non-orthogonality > 65  degrees                        : 4280
    faces with face pyramid volume < 1e-13                 : 752
    faces with face-decomposition tet quality < 1e-15      : 26
    faces with concavity > 80  degrees                     : 0
    faces with skewness > 4   (internal) or 20  (boundary) : 0
    faces with interpolation weights (0..1)  < 0.05        : 1806
    faces with volume ratio of neighbour cells < 0.01      : 0
    faces with face twist < 0.02                           : 2125
    faces on cells with determinant < 0.001                : 4371

Scaling iteration 7
Moving mesh using displacement scaling : min:0.13348389  max:1
Checking faces in error :
    non-orthogonality > 65  degrees                        : 1832
    faces with face pyramid volume < 1e-13                 : 21
    faces with face-decomposition tet quality < 1e-15      : 677
    faces with concavity > 80  degrees                     : 0
    faces with skewness > 4   (internal) or 20  (boundary) : 0
    faces with interpolation weights (0..1)  < 0.05        : 2520
    faces with volume ratio of neighbour cells < 0.01      : 0
    faces with face twist < 0.02                           : 719
    faces on cells with determinant < 0.001                : 7573

Scaling iteration 8
Moving mesh using displacement scaling : min:0.10011292  max:1
Checking faces in error :
    non-orthogonality > 65  degrees                        : 1080
    faces with face pyramid volume < 1e-13                 : 1
    faces with face-decomposition tet quality < 1e-15      : 724
    faces with concavity > 80  degrees                     : 0
    faces with skewness > 4   (internal) or 20  (boundary) : 0
    faces with interpolation weights (0..1)  < 0.05        : 2520
    faces with volume ratio of neighbour cells < 0.01      : 0
    faces with face twist < 0.02                           : 720
    faces on cells with determinant < 0.001                : 8251

Scaling iteration 9
Moving mesh using displacement scaling : min:0.075084686  max:1
Checking faces in error :
    non-orthogonality > 65  degrees                        : 1080
    faces with face pyramid volume < 1e-13                 : 0
    faces with face-decomposition tet quality < 1e-15      : 728
    faces with concavity > 80  degrees                     : 0
    faces with skewness > 4   (internal) or 20  (boundary) : 0
    faces with interpolation weights (0..1)  < 0.05        : 2517
    faces with volume ratio of neighbour cells < 0.01      : 0
    faces with face twist < 0.02                           : 720
    faces on cells with determinant < 0.001                : 785

Scaling iteration 10
Moving mesh using displacement scaling : min:0.056313515  max:1
Checking faces in error :
    non-orthogonality > 65  degrees                        : 1080
    faces with face pyramid volume < 1e-13                 : 0
    faces with face-decomposition tet quality < 1e-15      : 728
    faces with concavity > 80  degrees                     : 0
    faces with skewness > 4   (internal) or 20  (boundary) : 0
    faces with interpolation weights (0..1)  < 0.05        : 1803
    faces with volume ratio of neighbour cells < 0.01      : 0
    faces with face twist < 0.02                           : 720
    faces on cells with determinant < 0.001                : 720

Scaling iteration 11
Moving mesh using displacement scaling : min:0.042235136  max:1
Checking faces in error :
    non-orthogonality > 65  degrees                        : 1077
    faces with face pyramid volume < 1e-13                 : 0
    faces with face-decomposition tet quality < 1e-15      : 715
    faces with concavity > 80  degrees                     : 0
    faces with skewness > 4   (internal) or 20  (boundary) : 0
    faces with interpolation weights (0..1)  < 0.05        : 1784
    faces with volume ratio of neighbour cells < 0.01      : 0
    faces with face twist < 0.02                           : 720
    faces on cells with determinant < 0.001                : 736

Scaling iteration 12
Moving mesh using displacement scaling : min:0.031676352  max:1
Checking faces in error :
    non-orthogonality > 65  degrees                        : 720
    faces with face pyramid volume < 1e-13                 : 0
    faces with face-decomposition tet quality < 1e-15      : 15
    faces with concavity > 80  degrees                     : 0
    faces with skewness > 4   (internal) or 20  (boundary) : 0
    faces with interpolation weights (0..1)  < 0.05        : 365
    faces with volume ratio of neighbour cells < 0.01      : 0
    faces with face twist < 0.02                           : 720
    faces on cells with determinant < 0.001                : 1793

Scaling iteration 13
Moving mesh using displacement scaling : min:0.023757264  max:1
Checking faces in error :
    non-orthogonality > 65  degrees                        : 720
    faces with face pyramid volume < 1e-13                 : 0
    faces with face-decomposition tet quality < 1e-15      : 0
    faces with concavity > 80  degrees                     : 0
    faces with skewness > 4   (internal) or 20  (boundary) : 0
    faces with interpolation weights (0..1)  < 0.05        : 365
    faces with volume ratio of neighbour cells < 0.01      : 0
    faces with face twist < 0.02                           : 704
    faces on cells with determinant < 0.001                : 1749

Scaling iteration 14
Moving mesh using displacement scaling : min:0.017817948  max:1
Checking faces in error :
    non-orthogonality > 65  degrees                        : 720
    faces with face pyramid volume < 1e-13                 : 0
    faces with face-decomposition tet quality < 1e-15      : 0
    faces with concavity > 80  degrees                     : 0
    faces with skewness > 4   (internal) or 20  (boundary) : 0
    faces with interpolation weights (0..1)  < 0.05        : 344
    faces with volume ratio of neighbour cells < 0.01      : 0
    faces with face twist < 0.02                           : 691
    faces on cells with determinant < 0.001                : 21

Scaling iteration 15
Moving mesh using displacement scaling : min:0.013363461  max:1
Checking faces in error :
    non-orthogonality > 65  degrees                        : 714
    faces with face pyramid volume < 1e-13                 : 0
    faces with face-decomposition tet quality < 1e-15      : 0
    faces with concavity > 80  degrees                     : 0
    faces with skewness > 4   (internal) or 20  (boundary) : 0
    faces with interpolation weights (0..1)  < 0.05        : 350
    faces with volume ratio of neighbour cells < 0.01      : 0
    faces with face twist < 0.02                           : 6
    faces on cells with determinant < 0.001                : 21

Scaling iteration 16
Moving mesh using displacement scaling : min:0.010022596  max:1
Checking faces in error :
    non-orthogonality > 65  degrees                        : 714
    faces with face pyramid volume < 1e-13                 : 0
    faces with face-decomposition tet quality < 1e-15      : 0
    faces with concavity > 80  degrees                     : 0
    faces with skewness > 4   (internal) or 20  (boundary) : 0
    faces with interpolation weights (0..1)  < 0.05        : 350
    faces with volume ratio of neighbour cells < 0.01      : 0
    faces with face twist < 0.02                           : 0
    faces on cells with determinant < 0.001                : 0

Scaling iteration 17
Moving mesh using displacement scaling : min:0.0075169468  max:1
Checking faces in error :
    non-orthogonality > 65  degrees                        : 698
    faces with face pyramid volume < 1e-13                 : 0
    faces with face-decomposition tet quality < 1e-15      : 0
    faces with concavity > 80  degrees                     : 0
    faces with skewness > 4   (internal) or 20  (boundary) : 0
    faces with interpolation weights (0..1)  < 0.05        : 6
    faces with volume ratio of neighbour cells < 0.01      : 0
    faces with face twist < 0.02                           : 0
    faces on cells with determinant < 0.001                : 0

Scaling iteration 18
Moving mesh using displacement scaling : min:0.0056377101  max:1
Checking faces in error :
    non-orthogonality > 65  degrees                        : 688
    faces with face pyramid volume < 1e-13                 : 0
    faces with face-decomposition tet quality < 1e-15      : 0
    faces with concavity > 80  degrees                     : 0
    faces with skewness > 4   (internal) or 20  (boundary) : 0
    faces with interpolation weights (0..1)  < 0.05        : 6
    faces with volume ratio of neighbour cells < 0.01      : 0
    faces with face twist < 0.02                           : 0
    faces on cells with determinant < 0.001                : 0

Scaling iteration 19
Moving mesh using displacement scaling : min:0.0042282826  max:1
Checking faces in error :
    non-orthogonality > 65  degrees                        : 688
    faces with face pyramid volume < 1e-13                 : 0
    faces with face-decomposition tet quality < 1e-15      : 0
    faces with concavity > 80  degrees                     : 0
    faces with skewness > 4   (internal) or 20  (boundary) : 0
    faces with interpolation weights (0..1)  < 0.05        : 6
    faces with volume ratio of neighbour cells < 0.01      : 0
    faces with face twist < 0.02                           : 0
    faces on cells with determinant < 0.001                : 0

Scaling iteration 20
Displacement scaling for error reduction set to 0.
Moving mesh using displacement scaling : min:0.0031712119  max:1
Checking faces in error :
    non-orthogonality > 65  degrees                        : 688
    faces with face pyramid volume < 1e-13                 : 0
    faces with face-decomposition tet quality < 1e-15      : 0
    faces with concavity > 80  degrees                     : 0
    faces with skewness > 4   (internal) or 20  (boundary) : 0
    faces with interpolation weights (0..1)  < 0.05        : 6
    faces with volume ratio of neighbour cells < 0.01      : 0
    faces with face twist < 0.02                           : 0
    faces on cells with determinant < 0.001                : 0

Scaling iteration 21
Moving mesh using displacement scaling : min:0  max:1
Checking faces in error :
    non-orthogonality > 65  degrees                        : 0
    faces with face pyramid volume < 1e-13                 : 0
    faces with face-decomposition tet quality < 1e-15      : 0
    faces with concavity > 80  degrees                     : 0
    faces with skewness > 4   (internal) or 20  (boundary) : 0
    faces with interpolation weights (0..1)  < 0.05        : 0
    faces with volume ratio of neighbour cells < 0.01      : 0
    faces with face twist < 0.02                           : 0
    faces on cells with determinant < 0.001                : 0
Successfully moved mesh

Smoothing iteration 5
Found 0 non-manifold point(s).

Scaling iteration 0
Moving mesh using displacement scaling : min:1  max:1
Checking faces in error :
    non-orthogonality > 65  degrees                        : 6808
    faces with face pyramid volume < 1e-13                 : 6552
    faces with face-decomposition tet quality < 1e-15      : 0
    faces with concavity > 80  degrees                     : 0
    faces with skewness > 4   (internal) or 20  (boundary) : 0
    faces with interpolation weights (0..1)  < 0.05        : 0
    faces with volume ratio of neighbour cells < 0.01      : 0
    faces with face twist < 0.02                           : 0
    faces on cells with determinant < 0.001                : 0

Scaling iteration 1
Moving mesh using displacement scaling : min:0.75  max:1
Checking faces in error :
    non-orthogonality > 65  degrees                        : 6808
    faces with face pyramid volume < 1e-13                 : 6552
    faces with face-decomposition tet quality < 1e-15      : 0
    faces with concavity > 80  degrees                     : 0
    faces with skewness > 4   (internal) or 20  (boundary) : 0
    faces with interpolation weights (0..1)  < 0.05        : 0
    faces with volume ratio of neighbour cells < 0.01      : 0
    faces with face twist < 0.02                           : 0
    faces on cells with determinant < 0.001                : 0

Scaling iteration 2
Moving mesh using displacement scaling : min:0.5625  max:1
Checking faces in error :
    non-orthogonality > 65  degrees                        : 6808
    faces with face pyramid volume < 1e-13                 : 6552
    faces with face-decomposition tet quality < 1e-15      : 0
    faces with concavity > 80  degrees                     : 0
    faces with skewness > 4   (internal) or 20  (boundary) : 0
    faces with interpolation weights (0..1)  < 0.05        : 0
    faces with volume ratio of neighbour cells < 0.01      : 0
    faces with face twist < 0.02                           : 0
    faces on cells with determinant < 0.001                : 0

Scaling iteration 3
Moving mesh using displacement scaling : min:0.421875  max:1
Checking faces in error :
    non-orthogonality > 65  degrees                        : 6808
    faces with face pyramid volume < 1e-13                 : 6552
    faces with face-decomposition tet quality < 1e-15      : 0
    faces with concavity > 80  degrees                     : 0
    faces with skewness > 4   (internal) or 20  (boundary) : 0
    faces with interpolation weights (0..1)  < 0.05        : 0
    faces with volume ratio of neighbour cells < 0.01      : 0
    faces with face twist < 0.02                           : 0
    faces on cells with determinant < 0.001                : 0

Scaling iteration 4
Moving mesh using displacement scaling : min:0.31640625  max:1
Checking faces in error :
    non-orthogonality > 65  degrees                        : 6808
    faces with face pyramid volume < 1e-13                 : 6552
    faces with face-decomposition tet quality < 1e-15      : 0
    faces with concavity > 80  degrees                     : 0
    faces with skewness > 4   (internal) or 20  (boundary) : 0
    faces with interpolation weights (0..1)  < 0.05        : 0
    faces with volume ratio of neighbour cells < 0.01      : 0
    faces with face twist < 0.02                           : 0
    faces on cells with determinant < 0.001                : 0

Scaling iteration 5
Moving mesh using displacement scaling : min:0.23730469  max:1
Checking faces in error :
    non-orthogonality > 65  degrees                        : 8248
    faces with face pyramid volume < 1e-13                 : 5112
    faces with face-decomposition tet quality < 1e-15      : 0
    faces with concavity > 80  degrees                     : 0
    faces with skewness > 4   (internal) or 20  (boundary) : 0
    faces with interpolation weights (0..1)  < 0.05        : 0
    faces with volume ratio of neighbour cells < 0.01      : 0
    faces with face twist < 0.02                           : 0
    faces on cells with determinant < 0.001                : 0

Scaling iteration 6
Moving mesh using displacement scaling : min:0.17797852  max:1
Checking faces in error :
    non-orthogonality > 65  degrees                        : 6422
    faces with face pyramid volume < 1e-13                 : 761
    faces with face-decomposition tet quality < 1e-15      : 1415
    faces with concavity > 80  degrees                     : 0
    faces with skewness > 4   (internal) or 20  (boundary) : 0
    faces with interpolation weights (0..1)  < 0.05        : 408
    faces with volume ratio of neighbour cells < 0.01      : 0
    faces with face twist < 0.02                           : 2170
    faces on cells with determinant < 0.001                : 2184

Scaling iteration 7
Moving mesh using displacement scaling : min:0.13348389  max:1
Checking faces in error :
    non-orthogonality > 65  degrees                        : 2542
    faces with face pyramid volume < 1e-13                 : 22
    faces with face-decomposition tet quality < 1e-15      : 677
    faces with concavity > 80  degrees                     : 0
    faces with skewness > 4   (internal) or 20  (boundary) : 672
    faces with interpolation weights (0..1)  < 0.05        : 2520
    faces with volume ratio of neighbour cells < 0.01      : 0
    faces with face twist < 0.02                           : 759
    faces on cells with determinant < 0.001                : 6148

Scaling iteration 8
Moving mesh using displacement scaling : min:0.10011292  max:1
Checking faces in error :
    non-orthogonality > 65  degrees                        : 1080
    faces with face pyramid volume < 1e-13                 : 1
    faces with face-decomposition tet quality < 1e-15      : 728
    faces with concavity > 80  degrees                     : 0
    faces with skewness > 4   (internal) or 20  (boundary) : 0
    faces with interpolation weights (0..1)  < 0.05        : 2530
    faces with volume ratio of neighbour cells < 0.01      : 0
    faces with face twist < 0.02                           : 720
    faces on cells with determinant < 0.001                : 8297

Scaling iteration 9
Moving mesh using displacement scaling : min:0.075084686  max:1
Checking faces in error :
    non-orthogonality > 65  degrees                        : 1080
    faces with face pyramid volume < 1e-13                 : 0
    faces with face-decomposition tet quality < 1e-15      : 728
    faces with concavity > 80  degrees                     : 0
    faces with skewness > 4   (internal) or 20  (boundary) : 0
    faces with interpolation weights (0..1)  < 0.05        : 2520
    faces with volume ratio of neighbour cells < 0.01      : 0
    faces with face twist < 0.02                           : 720
    faces on cells with determinant < 0.001                : 5065

Scaling iteration 10
Moving mesh using displacement scaling : min:0.056313515  max:1
Checking faces in error :
    non-orthogonality > 65  degrees                        : 1080
    faces with face pyramid volume < 1e-13                 : 0
    faces with face-decomposition tet quality < 1e-15      : 728
    faces with concavity > 80  degrees                     : 0
    faces with skewness > 4   (internal) or 20  (boundary) : 0
    faces with interpolation weights (0..1)  < 0.05        : 2504
    faces with volume ratio of neighbour cells < 0.01      : 0
    faces with face twist < 0.02                           : 720
    faces on cells with determinant < 0.001                : 800

Scaling iteration 11
Moving mesh using displacement scaling : min:0.042235136  max:1
Checking faces in error :
    non-orthogonality > 65  degrees                        : 1077
    faces with face pyramid volume < 1e-13                 : 0
    faces with face-decomposition tet quality < 1e-15      : 725
    faces with concavity > 80  degrees                     : 0
    faces with skewness > 4   (internal) or 20  (boundary) : 0
    faces with interpolation weights (0..1)  < 0.05        : 1803
    faces with volume ratio of neighbour cells < 0.01      : 0
    faces with face twist < 0.02                           : 720
    faces on cells with determinant < 0.001                : 726

Scaling iteration 12
Moving mesh using displacement scaling : min:0.031676352  max:1
Checking faces in error :
    non-orthogonality > 65  degrees                        : 720
    faces with face pyramid volume < 1e-13                 : 0
    faces with face-decomposition tet quality < 1e-15      : 15
    faces with concavity > 80  degrees                     : 0
    faces with skewness > 4   (internal) or 20  (boundary) : 0
    faces with interpolation weights (0..1)  < 0.05        : 1800
    faces with volume ratio of neighbour cells < 0.01      : 0
    faces with face twist < 0.02                           : 720
    faces on cells with determinant < 0.001                : 1793

Scaling iteration 13
Moving mesh using displacement scaling : min:0.023757264  max:1
Checking faces in error :
    non-orthogonality > 65  degrees                        : 720
    faces with face pyramid volume < 1e-13                 : 0
    faces with face-decomposition tet quality < 1e-15      : 0
    faces with concavity > 80  degrees                     : 0
    faces with skewness > 4   (internal) or 20  (boundary) : 0
    faces with interpolation weights (0..1)  < 0.05        : 1800
    faces with volume ratio of neighbour cells < 0.01      : 0
    faces with face twist < 0.02                           : 714
    faces on cells with determinant < 0.001                : 1784

Scaling iteration 14
Moving mesh using displacement scaling : min:0.017817948  max:1
Checking faces in error :
    non-orthogonality > 65  degrees                        : 720
    faces with face pyramid volume < 1e-13                 : 0
    faces with face-decomposition tet quality < 1e-15      : 0
    faces with concavity > 80  degrees                     : 0
    faces with skewness > 4   (internal) or 20  (boundary) : 0
    faces with interpolation weights (0..1)  < 0.05        : 1768
    faces with volume ratio of neighbour cells < 0.01      : 0
    faces with face twist < 0.02                           : 704
    faces on cells with determinant < 0.001                : 21

Scaling iteration 15
Moving mesh using displacement scaling : min:0.013363461  max:1
Checking faces in error :
    non-orthogonality > 65  degrees                        : 714
    faces with face pyramid volume < 1e-13                 : 0
    faces with face-decomposition tet quality < 1e-15      : 0
    faces with concavity > 80  degrees                     : 0
    faces with skewness > 4   (internal) or 20  (boundary) : 0
    faces with interpolation weights (0..1)  < 0.05        : 1078
    faces with volume ratio of neighbour cells < 0.01      : 0
    faces with face twist < 0.02                           : 6
    faces on cells with determinant < 0.001                : 21

Scaling iteration 16
Moving mesh using displacement scaling : min:0.010022596  max:1
Checking faces in error :
    non-orthogonality > 65  degrees                        : 714
    faces with face pyramid volume < 1e-13                 : 0
    faces with face-decomposition tet quality < 1e-15      : 0
    faces with concavity > 80  degrees                     : 0
    faces with skewness > 4   (internal) or 20  (boundary) : 0
    faces with interpolation weights (0..1)  < 0.05        : 377
    faces with volume ratio of neighbour cells < 0.01      : 0
    faces with face twist < 0.02                           : 0
    faces on cells with determinant < 0.001                : 0

Scaling iteration 17
Moving mesh using displacement scaling : min:0.0075169468  max:1
Checking faces in error :
    non-orthogonality > 65  degrees                        : 708
    faces with face pyramid volume < 1e-13                 : 0
    faces with face-decomposition tet quality < 1e-15      : 0
    faces with concavity > 80  degrees                     : 0
    faces with skewness > 4   (internal) or 20  (boundary) : 0
    faces with interpolation weights (0..1)  < 0.05        : 377
    faces with volume ratio of neighbour cells < 0.01      : 0
    faces with face twist < 0.02                           : 0
    faces on cells with determinant < 0.001                : 0

Scaling iteration 18
Moving mesh using displacement scaling : min:0.0056377101  max:1
Checking faces in error :
    non-orthogonality > 65  degrees                        : 708
    faces with face pyramid volume < 1e-13                 : 0
    faces with face-decomposition tet quality < 1e-15      : 0
    faces with concavity > 80  degrees                     : 0
    faces with skewness > 4   (internal) or 20  (boundary) : 0
    faces with interpolation weights (0..1)  < 0.05        : 371
    faces with volume ratio of neighbour cells < 0.01      : 0
    faces with face twist < 0.02                           : 0
    faces on cells with determinant < 0.001                : 0

Scaling iteration 19
Moving mesh using displacement scaling : min:0.0042282826  max:1
Checking faces in error :
    non-orthogonality > 65  degrees                        : 698
    faces with face pyramid volume < 1e-13                 : 0
    faces with face-decomposition tet quality < 1e-15      : 0
    faces with concavity > 80  degrees                     : 0
    faces with skewness > 4   (internal) or 20  (boundary) : 0
    faces with interpolation weights (0..1)  < 0.05        : 353
    faces with volume ratio of neighbour cells < 0.01      : 0
    faces with face twist < 0.02                           : 0
    faces on cells with determinant < 0.001                : 0

Scaling iteration 20
Displacement scaling for error reduction set to 0.
Moving mesh using displacement scaling : min:0.0031712119  max:1
Checking faces in error :
    non-orthogonality > 65  degrees                        : 698
    faces with face pyramid volume < 1e-13                 : 0
    faces with face-decomposition tet quality < 1e-15      : 0
    faces with concavity > 80  degrees                     : 0
    faces with skewness > 4   (internal) or 20  (boundary) : 0
    faces with interpolation weights (0..1)  < 0.05        : 350
    faces with volume ratio of neighbour cells < 0.01      : 0
    faces with face twist < 0.02                           : 0
    faces on cells with determinant < 0.001                : 0

Scaling iteration 21
Moving mesh using displacement scaling : min:0  max:1
Checking faces in error :
    non-orthogonality > 65  degrees                        : 0
    faces with face pyramid volume < 1e-13                 : 0
    faces with face-decomposition tet quality < 1e-15      : 0
    faces with concavity > 80  degrees                     : 0
    faces with skewness > 4   (internal) or 20  (boundary) : 0
    faces with interpolation weights (0..1)  < 0.05        : 0
    faces with volume ratio of neighbour cells < 0.01      : 0
    faces with face twist < 0.02                           : 0
    faces on cells with determinant < 0.001                : 0
Successfully moved mesh

Smoothing iteration 6
Found 0 non-manifold point(s).

Scaling iteration 0
Moving mesh using displacement scaling : min:1  max:1
Checking faces in error :
    non-orthogonality > 65  degrees                        : 6808
    faces with face pyramid volume < 1e-13                 : 6552
    faces with face-decomposition tet quality < 1e-15      : 0
    faces with concavity > 80  degrees                     : 0
    faces with skewness > 4   (internal) or 20  (boundary) : 0
    faces with interpolation weights (0..1)  < 0.05        : 0
    faces with volume ratio of neighbour cells < 0.01      : 0
    faces with face twist < 0.02                           : 0
    faces on cells with determinant < 0.001                : 0

Scaling iteration 1
Moving mesh using displacement scaling : min:0.75  max:1
Checking faces in error :
    non-orthogonality > 65  degrees                        : 6808
    faces with face pyramid volume < 1e-13                 : 6552
    faces with face-decomposition tet quality < 1e-15      : 0
    faces with concavity > 80  degrees                     : 0
    faces with skewness > 4   (internal) or 20  (boundary) : 0
    faces with interpolation weights (0..1)  < 0.05        : 0
    faces with volume ratio of neighbour cells < 0.01      : 0
    faces with face twist < 0.02                           : 0
    faces on cells with determinant < 0.001                : 0

Scaling iteration 2
Moving mesh using displacement scaling : min:0.5625  max:1
Checking faces in error :
    non-orthogonality > 65  degrees                        : 6808
    faces with face pyramid volume < 1e-13                 : 6552
    faces with face-decomposition tet quality < 1e-15      : 0
    faces with concavity > 80  degrees                     : 0
    faces with skewness > 4   (internal) or 20  (boundary) : 0
    faces with interpolation weights (0..1)  < 0.05        : 0
    faces with volume ratio of neighbour cells < 0.01      : 0
    faces with face twist < 0.02                           : 0
    faces on cells with determinant < 0.001                : 0

Scaling iteration 3
Moving mesh using displacement scaling : min:0.421875  max:1
Checking faces in error :
    non-orthogonality > 65  degrees                        : 6808
    faces with face pyramid volume < 1e-13                 : 6552
    faces with face-decomposition tet quality < 1e-15      : 0
    faces with concavity > 80  degrees                     : 0
    faces with skewness > 4   (internal) or 20  (boundary) : 0
    faces with interpolation weights (0..1)  < 0.05        : 0
    faces with volume ratio of neighbour cells < 0.01      : 0
    faces with face twist < 0.02                           : 0
    faces on cells with determinant < 0.001                : 0

Scaling iteration 4
Moving mesh using displacement scaling : min:0.31640625  max:1
Checking faces in error :
    non-orthogonality > 65  degrees                        : 6808
    faces with face pyramid volume < 1e-13                 : 6552
    faces with face-decomposition tet quality < 1e-15      : 0
    faces with concavity > 80  degrees                     : 0
    faces with skewness > 4   (internal) or 20  (boundary) : 0
    faces with interpolation weights (0..1)  < 0.05        : 0
    faces with volume ratio of neighbour cells < 0.01      : 0
    faces with face twist < 0.02                           : 0
    faces on cells with determinant < 0.001                : 0

Scaling iteration 5
Moving mesh using displacement scaling : min:0.23730469  max:1
Checking faces in error :
    non-orthogonality > 65  degrees                        : 8248
    faces with face pyramid volume < 1e-13                 : 5112
    faces with face-decomposition tet quality < 1e-15      : 0
    faces with concavity > 80  degrees                     : 0
    faces with skewness > 4   (internal) or 20  (boundary) : 0
    faces with interpolation weights (0..1)  < 0.05        : 0
    faces with volume ratio of neighbour cells < 0.01      : 0
    faces with face twist < 0.02                           : 0
    faces on cells with determinant < 0.001                : 0

Scaling iteration 6
Moving mesh using displacement scaling : min:0.17797852  max:1
Checking faces in error :
    non-orthogonality > 65  degrees                        : 7142
    faces with face pyramid volume < 1e-13                 : 1462
    faces with face-decomposition tet quality < 1e-15      : 735
    faces with concavity > 80  degrees                     : 0
    faces with skewness > 4   (internal) or 20  (boundary) : 0
    faces with interpolation weights (0..1)  < 0.05        : 392
    faces with volume ratio of neighbour cells < 0.01      : 0
    faces with face twist < 0.02                           : 1456
    faces on cells with determinant < 0.001                : 2173

Scaling iteration 7
Moving mesh using displacement scaling : min:0.13348389  max:1
Checking faces in error :
    non-orthogonality > 65  degrees                        : 3231
    faces with face pyramid volume < 1e-13                 : 21
    faces with face-decomposition tet quality < 1e-15      : 677
    faces with concavity > 80  degrees                     : 0
    faces with skewness > 4   (internal) or 20  (boundary) : 672
    faces with interpolation weights (0..1)  < 0.05        : 1832
    faces with volume ratio of neighbour cells < 0.01      : 0
    faces with face twist < 0.02                           : 766
    faces on cells with determinant < 0.001                : 6143

Scaling iteration 8
Moving mesh using displacement scaling : min:0.10011292  max:1
Checking faces in error :
    non-orthogonality > 65  degrees                        : 1768
    faces with face pyramid volume < 1e-13                 : 1
    faces with face-decomposition tet quality < 1e-15      : 728
    faces with concavity > 80  degrees                     : 0
    faces with skewness > 4   (internal) or 20  (boundary) : 0
    faces with interpolation weights (0..1)  < 0.05        : 2530
    faces with volume ratio of neighbour cells < 0.01      : 0
    faces with face twist < 0.02                           : 720
    faces on cells with determinant < 0.001                : 7609

Scaling iteration 9
Moving mesh using displacement scaling : min:0.075084686  max:1
Checking faces in error :
    non-orthogonality > 65  degrees                        : 1080
    faces with face pyramid volume < 1e-13                 : 0
    faces with face-decomposition tet quality < 1e-15      : 728
    faces with concavity > 80  degrees                     : 0
    faces with skewness > 4   (internal) or 20  (boundary) : 0
    faces with interpolation weights (0..1)  < 0.05        : 2520
    faces with volume ratio of neighbour cells < 0.01      : 0
    faces with face twist < 0.02                           : 720
    faces on cells with determinant < 0.001                : 6834

Scaling iteration 10
Moving mesh using displacement scaling : min:0.056313515  max:1
Checking faces in error :
    non-orthogonality > 65  degrees                        : 1080
    faces with face pyramid volume < 1e-13                 : 0
    faces with face-decomposition tet quality < 1e-15      : 728
    faces with concavity > 80  degrees                     : 0
    faces with skewness > 4   (internal) or 20  (boundary) : 0
    faces with interpolation weights (0..1)  < 0.05        : 2514
    faces with volume ratio of neighbour cells < 0.01      : 0
    faces with face twist < 0.02                           : 720
    faces on cells with determinant < 0.001                : 3560

Scaling iteration 11
Moving mesh using displacement scaling : min:0.042235136  max:1
Checking faces in error :
    non-orthogonality > 65  degrees                        : 1077
    faces with face pyramid volume < 1e-13                 : 0
    faces with face-decomposition tet quality < 1e-15      : 725
    faces with concavity > 80  degrees                     : 0
    faces with skewness > 4   (internal) or 20  (boundary) : 0
    faces with interpolation weights (0..1)  < 0.05        : 1806
    faces with volume ratio of neighbour cells < 0.01      : 0
    faces with face twist < 0.02                           : 720
    faces on cells with determinant < 0.001                : 726

Scaling iteration 12
Moving mesh using displacement scaling : min:0.031676352  max:1
Checking faces in error :
    non-orthogonality > 65  degrees                        : 720
    faces with face pyramid volume < 1e-13                 : 0
    faces with face-decomposition tet quality < 1e-15      : 15
    faces with concavity > 80  degrees                     : 0
    faces with skewness > 4   (internal) or 20  (boundary) : 0
    faces with interpolation weights (0..1)  < 0.05        : 1800
    faces with volume ratio of neighbour cells < 0.01      : 0
    faces with face twist < 0.02                           : 720
    faces on cells with determinant < 0.001                : 1793

Scaling iteration 13
Moving mesh using displacement scaling : min:0.023757264  max:1
Checking faces in error :
    non-orthogonality > 65  degrees                        : 720
    faces with face pyramid volume < 1e-13                 : 0
    faces with face-decomposition tet quality < 1e-15      : 0
    faces with concavity > 80  degrees                     : 0
    faces with skewness > 4   (internal) or 20  (boundary) : 0
    faces with interpolation weights (0..1)  < 0.05        : 1800
    faces with volume ratio of neighbour cells < 0.01      : 0
    faces with face twist < 0.02                           : 714
    faces on cells with determinant < 0.001                : 1784

Scaling iteration 14
Moving mesh using displacement scaling : min:0.017817948  max:1
Checking faces in error :
    non-orthogonality > 65  degrees                        : 720
    faces with face pyramid volume < 1e-13                 : 0
    faces with face-decomposition tet quality < 1e-15      : 0
    faces with concavity > 80  degrees                     : 0
    faces with skewness > 4   (internal) or 20  (boundary) : 0
    faces with interpolation weights (0..1)  < 0.05        : 1787
    faces with volume ratio of neighbour cells < 0.01      : 0
    faces with face twist < 0.02                           : 704
    faces on cells with determinant < 0.001                : 21

Scaling iteration 15
Moving mesh using displacement scaling : min:0.013363461  max:1
Checking faces in error :
    non-orthogonality > 65  degrees                        : 714
    faces with face pyramid volume < 1e-13                 : 0
    faces with face-decomposition tet quality < 1e-15      : 0
    faces with concavity > 80  degrees                     : 0
    faces with skewness > 4   (internal) or 20  (boundary) : 0
    faces with interpolation weights (0..1)  < 0.05        : 1774
    faces with volume ratio of neighbour cells < 0.01      : 0
    faces with face twist < 0.02                           : 6
    faces on cells with determinant < 0.001                : 21

Scaling iteration 16
Moving mesh using displacement scaling : min:0.010022596  max:1
Checking faces in error :
    non-orthogonality > 65  degrees                        : 714
    faces with face pyramid volume < 1e-13                 : 0
    faces with face-decomposition tet quality < 1e-15      : 0
    faces with concavity > 80  degrees                     : 0
    faces with skewness > 4   (internal) or 20  (boundary) : 0
    faces with interpolation weights (0..1)  < 0.05        : 1758
    faces with volume ratio of neighbour cells < 0.01      : 0
    faces with face twist < 0.02                           : 0
    faces on cells with determinant < 0.001                : 0

Scaling iteration 17
Moving mesh using displacement scaling : min:0.0075169468  max:1
Checking faces in error :
    non-orthogonality > 65  degrees                        : 708
    faces with face pyramid volume < 1e-13                 : 0
    faces with face-decomposition tet quality < 1e-15      : 0
    faces with concavity > 80  degrees                     : 0
    faces with skewness > 4   (internal) or 20  (boundary) : 0
    faces with interpolation weights (0..1)  < 0.05        : 1080
    faces with volume ratio of neighbour cells < 0.01      : 0
    faces with face twist < 0.02                           : 0
    faces on cells with determinant < 0.001                : 0

Scaling iteration 18
Moving mesh using displacement scaling : min:0.0056377101  max:1
Checking faces in error :
    non-orthogonality > 65  degrees                        : 708
    faces with face pyramid volume < 1e-13                 : 0
    faces with face-decomposition tet quality < 1e-15      : 0
    faces with concavity > 80  degrees                     : 0
    faces with skewness > 4   (internal) or 20  (boundary) : 0
    faces with interpolation weights (0..1)  < 0.05        : 1065
    faces with volume ratio of neighbour cells < 0.01      : 0
    faces with face twist < 0.02                           : 0
    faces on cells with determinant < 0.001                : 0

Scaling iteration 19
Moving mesh using displacement scaling : min:0.0042282826  max:1
Checking faces in error :
    non-orthogonality > 65  degrees                        : 698
    faces with face pyramid volume < 1e-13                 : 0
    faces with face-decomposition tet quality < 1e-15      : 0
    faces with concavity > 80  degrees                     : 0
    faces with skewness > 4   (internal) or 20  (boundary) : 0
    faces with interpolation weights (0..1)  < 0.05        : 1065
    faces with volume ratio of neighbour cells < 0.01      : 0
    faces with face twist < 0.02                           : 0
    faces on cells with determinant < 0.001                : 0

Scaling iteration 20
Displacement scaling for error reduction set to 0.
Moving mesh using displacement scaling : min:0.0031712119  max:1
Checking faces in error :
    non-orthogonality > 65  degrees                        : 698
    faces with face pyramid volume < 1e-13                 : 0
    faces with face-decomposition tet quality < 1e-15      : 0
    faces with concavity > 80  degrees                     : 0
    faces with skewness > 4   (internal) or 20  (boundary) : 0
    faces with interpolation weights (0..1)  < 0.05        : 1057
    faces with volume ratio of neighbour cells < 0.01      : 0
    faces with face twist < 0.02                           : 0
    faces on cells with determinant < 0.001                : 0

Scaling iteration 21
Moving mesh using displacement scaling : min:0  max:1
Checking faces in error :
    non-orthogonality > 65  degrees                        : 0
    faces with face pyramid volume < 1e-13                 : 0
    faces with face-decomposition tet quality < 1e-15      : 0
    faces with concavity > 80  degrees                     : 0
    faces with skewness > 4   (internal) or 20  (boundary) : 0
    faces with interpolation weights (0..1)  < 0.05        : 0
    faces with volume ratio of neighbour cells < 0.01      : 0
    faces with face twist < 0.02                           : 0
    faces on cells with determinant < 0.001                : 0
Successfully moved mesh

Smoothing iteration 7
Found 0 non-manifold point(s).

Scaling iteration 0
Moving mesh using displacement scaling : min:1  max:1
Checking faces in error :
    non-orthogonality > 65  degrees                        : 6808
    faces with face pyramid volume < 1e-13                 : 6552
    faces with face-decomposition tet quality < 1e-15      : 0
    faces with concavity > 80  degrees                     : 0
    faces with skewness > 4   (internal) or 20  (boundary) : 0
    faces with interpolation weights (0..1)  < 0.05        : 0
    faces with volume ratio of neighbour cells < 0.01      : 0
    faces with face twist < 0.02                           : 0
[...]
    faces with face twist < 0.02                           : 0
    faces on cells with determinant < 0.001                : 0
Detected 8 illegal faces (concave, zero area or negative cell pyramid volume)
Extruding 2116 out of 3594 faces (58.875904%). Removed extrusion at 8 faces.
Added 5808 out of 10782 cells (53.867557%).


Layer addition iteration 43
--------------------------
Switched to relaxed meshQuality constraints.

Determining displacement for added points according to pointNormal ...
Detected 0 points with point normal pointing through faces.
Reset displacement at 0 points to average of surrounding points.

displacementMedialAxis : Smoothing using Medial Axis ...
displacementMedialAxis : Reducing layer thickness at 0 nodes where thickness to medial axis distance is large 
displacementMedialAxis : Removing isolated regions ...
displacementMedialAxis : Number of isolated points extrusion stopped : 0
displacementMedialAxis : Smoothing field ...
    Iteration 0   residual 2.4775501e-06
displacementMedialAxis : Moving mesh ...
displacementMedialAxis : Iteration 0
Moving mesh using displacement scaling : min:1  max:1
Checking faces in error :
    non-orthogonality > 75  degrees                        : 0
    faces with face pyramid volume < 1e-13                 : 0
    faces with face-decomposition tet quality < 1e-15      : 0
    faces with concavity > 80  degrees                     : 0
    faces with skewness > 8   (internal) or 25  (boundary) : 0
    faces with interpolation weights (0..1)  < 0.05        : 0
    faces with volume ratio of neighbour cells < 0.01      : 0
    faces with face twist < 0.02                           : 0
    faces on cells with determinant < 0.001                : 0
displacementMedialAxis : Successfully moved mesh
displacementMedialAxis : Finished moving mesh ...
truncateDisplacement : Unextruded 0 faces due to non-consecutive vertices being extruded.
truncateDisplacement : Unextruded 0 faces due to stringed edges with inconsistent extrusion.

Setting up information for layer truncation ...

Checking mesh with layer ...
Checking faces in error :
    non-orthogonality > 75  degrees                        : 0
    faces with face pyramid volume < 1e-13                 : 0
    faces with face-decomposition tet quality < 1e-15      : 0
    faces with concavity > 80  degrees                     : 0
    faces with skewness > 8   (internal) or 25  (boundary) : 0
    faces with interpolation weights (0..1)  < 0.05        : 10
    faces with volume ratio of neighbour cells < 0.01      : 0
    faces with face twist < 0.02                           : 0
    faces on cells with determinant < 0.001                : 0
Detected 10 illegal faces (concave, zero area or negative cell pyramid volume)
Extruding 2106 out of 3594 faces (58.597663%). Removed extrusion at 8 faces.
Added 5784 out of 10782 cells (53.644964%).


Layer addition iteration 44
--------------------------
Switched to relaxed meshQuality constraints.

Determining displacement for added points according to pointNormal ...
Detected 0 points with point normal pointing through faces.
Reset displacement at 0 points to average of surrounding points.

displacementMedialAxis : Smoothing using Medial Axis ...
displacementMedialAxis : Reducing layer thickness at 0 nodes where thickness to medial axis distance is large 
displacementMedialAxis : Removing isolated regions ...
displacementMedialAxis : Number of isolated points extrusion stopped : 0
displacementMedialAxis : Smoothing field ...
    Iteration 0   residual 2.4607109e-06
displacementMedialAxis : Moving mesh ...
displacementMedialAxis : Iteration 0
Moving mesh using displacement scaling : min:1  max:1
Checking faces in error :
    non-orthogonality > 75  degrees                        : 0
    faces with face pyramid volume < 1e-13                 : 0
    faces with face-decomposition tet quality < 1e-15      : 0
    faces with concavity > 80  degrees                     : 0
    faces with skewness > 8   (internal) or 25  (boundary) : 0
    faces with interpolation weights (0..1)  < 0.05        : 0
    faces with volume ratio of neighbour cells < 0.01      : 0
    faces with face twist < 0.02                           : 0
    faces on cells with determinant < 0.001                : 0
displacementMedialAxis : Successfully moved mesh
displacementMedialAxis : Finished moving mesh ...
truncateDisplacement : Unextruded 0 faces due to non-consecutive vertices being extruded.
truncateDisplacement : Unextruded 0 faces due to stringed edges with inconsistent extrusion.

Setting up information for layer truncation ...

Checking mesh with layer ...
Checking faces in error :
    non-orthogonality > 75  degrees                        : 0
    faces with face pyramid volume < 1e-13                 : 0
    faces with face-decomposition tet quality < 1e-15      : 0
    faces with concavity > 80  degrees                     : 0
    faces with skewness > 8   (internal) or 25  (boundary) : 0
    faces with interpolation weights (0..1)  < 0.05        : 8
    faces with volume ratio of neighbour cells < 0.01      : 0
    faces with face twist < 0.02                           : 0
    faces on cells with determinant < 0.001                : 0
Detected 8 illegal faces (concave, zero area or negative cell pyramid volume)
Extruding 2098 out of 3594 faces (58.37507%). Removed extrusion at 6 faces.
Added 5754 out of 10782 cells (53.366722%).


Layer addition iteration 45
--------------------------
Switched to relaxed meshQuality constraints.

Determining displacement for added points according to pointNormal ...
Detected 0 points with point normal pointing through faces.
Reset displacement at 0 points to average of surrounding points.

displacementMedialAxis : Smoothing using Medial Axis ...
displacementMedialAxis : Reducing layer thickness at 0 nodes where thickness to medial axis distance is large 
displacementMedialAxis : Removing isolated regions ...
displacementMedialAxis : Number of isolated points extrusion stopped : 0
displacementMedialAxis : Smoothing field ...
    Iteration 0   residual 2.4442273e-06
displacementMedialAxis : Moving mesh ...
displacementMedialAxis : Iteration 0
Moving mesh using displacement scaling : min:1  max:1
Checking faces in error :
    non-orthogonality > 75  degrees                        : 0
    faces with face pyramid volume < 1e-13                 : 0
    faces with face-decomposition tet quality < 1e-15      : 0
    faces with concavity > 80  degrees                     : 0
    faces with skewness > 8   (internal) or 25  (boundary) : 0
    faces with interpolation weights (0..1)  < 0.05        : 0
    faces with volume ratio of neighbour cells < 0.01      : 0
    faces with face twist < 0.02                           : 0
    faces on cells with determinant < 0.001                : 0
displacementMedialAxis : Successfully moved mesh
displacementMedialAxis : Finished moving mesh ...
truncateDisplacement : Unextruded 0 faces due to non-consecutive vertices being extruded.
truncateDisplacement : Unextruded 0 faces due to stringed edges with inconsistent extrusion.

Setting up information for layer truncation ...

Checking mesh with layer ...
Checking faces in error :
    non-orthogonality > 75  degrees                        : 0
    faces with face pyramid volume < 1e-13                 : 0
    faces with face-decomposition tet quality < 1e-15      : 0
    faces with concavity > 80  degrees                     : 0
    faces with skewness > 8   (internal) or 25  (boundary) : 0
    faces with interpolation weights (0..1)  < 0.05        : 4
    faces with volume ratio of neighbour cells < 0.01      : 0
    faces with face twist < 0.02                           : 0
    faces on cells with determinant < 0.001                : 0
Detected 4 illegal faces (concave, zero area or negative cell pyramid volume)
Extruding 2094 out of 3594 faces (58.263773%). Removed extrusion at 4 faces.
Added 5730 out of 10782 cells (53.144129%).


Layer addition iteration 46
--------------------------
Switched to relaxed meshQuality constraints.

Determining displacement for added points according to pointNormal ...
Detected 0 points with point normal pointing through faces.
Reset displacement at 0 points to average of surrounding points.

displacementMedialAxis : Smoothing using Medial Axis ...
displacementMedialAxis : Reducing layer thickness at 0 nodes where thickness to medial axis distance is large 
displacementMedialAxis : Removing isolated regions ...
displacementMedialAxis : Number of isolated points extrusion stopped : 0
displacementMedialAxis : Smoothing field ...
    Iteration 0   residual 2.4429052e-06
displacementMedialAxis : Moving mesh ...
displacementMedialAxis : Iteration 0
Moving mesh using displacement scaling : min:1  max:1
Checking faces in error :
    non-orthogonality > 75  degrees                        : 0
    faces with face pyramid volume < 1e-13                 : 0
    faces with face-decomposition tet quality < 1e-15      : 0
    faces with concavity > 80  degrees                     : 0
    faces with skewness > 8   (internal) or 25  (boundary) : 0
    faces with interpolation weights (0..1)  < 0.05        : 0
    faces with volume ratio of neighbour cells < 0.01      : 0
    faces with face twist < 0.02                           : 0
    faces on cells with determinant < 0.001                : 0
displacementMedialAxis : Successfully moved mesh
displacementMedialAxis : Finished moving mesh ...
truncateDisplacement : Unextruded 0 faces due to non-consecutive vertices being extruded.
truncateDisplacement : Unextruded 0 faces due to stringed edges with inconsistent extrusion.

Setting up information for layer truncation ...

Checking mesh with layer ...
Checking faces in error :
    non-orthogonality > 75  degrees                        : 0
    faces with face pyramid volume < 1e-13                 : 0
    faces with face-decomposition tet quality < 1e-15      : 0
    faces with concavity > 80  degrees                     : 0
    faces with skewness > 8   (internal) or 25  (boundary) : 0
    faces with interpolation weights (0..1)  < 0.05        : 4
    faces with volume ratio of neighbour cells < 0.01      : 0
    faces with face twist < 0.02                           : 0
    faces on cells with determinant < 0.001                : 0
Detected 4 illegal faces (concave, zero area or negative cell pyramid volume)
Extruding 2090 out of 3594 faces (58.152476%). Removed extrusion at 4 faces.
Added 5718 out of 10782 cells (53.032832%).


Layer addition iteration 47
--------------------------
Switched to relaxed meshQuality constraints.

Determining displacement for added points according to pointNormal ...
Detected 0 points with point normal pointing through faces.
Reset displacement at 0 points to average of surrounding points.

displacementMedialAxis : Smoothing using Medial Axis ...
displacementMedialAxis : Reducing layer thickness at 0 nodes where thickness to medial axis distance is large 
displacementMedialAxis : Removing isolated regions ...
displacementMedialAxis : Number of isolated points extrusion stopped : 0
displacementMedialAxis : Smoothing field ...
    Iteration 0   residual 2.4353841e-06
displacementMedialAxis : Moving mesh ...
displacementMedialAxis : Iteration 0
Moving mesh using displacement scaling : min:1  max:1
Checking faces in error :
    non-orthogonality > 75  degrees                        : 0
    faces with face pyramid volume < 1e-13                 : 0
    faces with face-decomposition tet quality < 1e-15      : 0
    faces with concavity > 80  degrees                     : 0
    faces with skewness > 8   (internal) or 25  (boundary) : 0
    faces with interpolation weights (0..1)  < 0.05        : 0
    faces with volume ratio of neighbour cells < 0.01      : 0
    faces with face twist < 0.02                           : 0
    faces on cells with determinant < 0.001                : 0
displacementMedialAxis : Successfully moved mesh
displacementMedialAxis : Finished moving mesh ...
truncateDisplacement : Unextruded 0 faces due to non-consecutive vertices being extruded.
truncateDisplacement : Unextruded 0 faces due to stringed edges with inconsistent extrusion.

Setting up information for layer truncation ...

Checking mesh with layer ...
Checking faces in error :
    non-orthogonality > 75  degrees                        : 0
    faces with face pyramid volume < 1e-13                 : 0
    faces with face-decomposition tet quality < 1e-15      : 0
    faces with concavity > 80  degrees                     : 0
    faces with skewness > 8   (internal) or 25  (boundary) : 0
    faces with interpolation weights (0..1)  < 0.05        : 4
    faces with volume ratio of neighbour cells < 0.01      : 0
    faces with face twist < 0.02                           : 0
    faces on cells with determinant < 0.001                : 0
Detected 4 illegal faces (concave, zero area or negative cell pyramid volume)
Extruding 2086 out of 3594 faces (58.04118%). Removed extrusion at 4 faces.
Added 5706 out of 10782 cells (52.921536%).


Layer addition iteration 48
--------------------------
Switched to relaxed meshQuality constraints.

Determining displacement for added points according to pointNormal ...
Detected 0 points with point normal pointing through faces.
Reset displacement at 0 points to average of surrounding points.

displacementMedialAxis : Smoothing using Medial Axis ...
displacementMedialAxis : Reducing layer thickness at 0 nodes where thickness to medial axis distance is large 
displacementMedialAxis : Removing isolated regions ...
displacementMedialAxis : Number of isolated points extrusion stopped : 0
displacementMedialAxis : Smoothing field ...
    Iteration 0   residual 2.4330178e-06
displacementMedialAxis : Moving mesh ...
displacementMedialAxis : Iteration 0
Moving mesh using displacement scaling : min:1  max:1
Checking faces in error :
    non-orthogonality > 75  degrees                        : 0
    faces with face pyramid volume < 1e-13                 : 0
    faces with face-decomposition tet quality < 1e-15      : 0
    faces with concavity > 80  degrees                     : 0
    faces with skewness > 8   (internal) or 25  (boundary) : 0
    faces with interpolation weights (0..1)  < 0.05        : 0
    faces with volume ratio of neighbour cells < 0.01      : 0
    faces with face twist < 0.02                           : 0
    faces on cells with determinant < 0.001                : 0
displacementMedialAxis : Successfully moved mesh
displacementMedialAxis : Finished moving mesh ...
truncateDisplacement : Unextruded 0 faces due to non-consecutive vertices being extruded.
truncateDisplacement : Unextruded 0 faces due to stringed edges with inconsistent extrusion.

Setting up information for layer truncation ...

Checking mesh with layer ...
Checking faces in error :
    non-orthogonality > 75  degrees                        : 0
    faces with face pyramid volume < 1e-13                 : 0
    faces with face-decomposition tet quality < 1e-15      : 0
    faces with concavity > 80  degrees                     : 0
    faces with skewness > 8   (internal) or 25  (boundary) : 0
    faces with interpolation weights (0..1)  < 0.05        : 2
    faces with volume ratio of neighbour cells < 0.01      : 0
    faces with face twist < 0.02                           : 0
    faces on cells with determinant < 0.001                : 0
Detected 2 illegal faces (concave, zero area or negative cell pyramid volume)
Extruding 2084 out of 3594 faces (57.985531%). Removed extrusion at 2 faces.
Added 5694 out of 10782 cells (52.810239%).


Layer addition iteration 49
--------------------------
Switched to relaxed meshQuality constraints.

Determining displacement for added points according to pointNormal ...
Detected 0 points with point normal pointing through faces.
Reset displacement at 0 points to average of surrounding points.

displacementMedialAxis : Smoothing using Medial Axis ...
displacementMedialAxis : Reducing layer thickness at 0 nodes where thickness to medial axis distance is large 
displacementMedialAxis : Removing isolated regions ...
displacementMedialAxis : Number of isolated points extrusion stopped : 0
displacementMedialAxis : Smoothing field ...
    Iteration 0   residual 2.4368743e-06
displacementMedialAxis : Moving mesh ...
displacementMedialAxis : Iteration 0
Moving mesh using displacement scaling : min:1  max:1
Checking faces in error :
    non-orthogonality > 75  degrees                        : 0
    faces with face pyramid volume < 1e-13                 : 0
    faces with face-decomposition tet quality < 1e-15      : 0
    faces with concavity > 80  degrees                     : 0
    faces with skewness > 8   (internal) or 25  (boundary) : 0
    faces with interpolation weights (0..1)  < 0.05        : 0
    faces with volume ratio of neighbour cells < 0.01      : 0
    faces with face twist < 0.02                           : 0
    faces on cells with determinant < 0.001                : 0
displacementMedialAxis : Successfully moved mesh
displacementMedialAxis : Finished moving mesh ...
truncateDisplacement : Unextruded 0 faces due to non-consecutive vertices being extruded.
truncateDisplacement : Unextruded 0 faces due to stringed edges with inconsistent extrusion.

Setting up information for layer truncation ...

Checking mesh with layer ...
Checking faces in error :
    non-orthogonality > 75  degrees                        : 0
    faces with face pyramid volume < 1e-13                 : 0
    faces with face-decomposition tet quality < 1e-15      : 0
    faces with concavity > 80  degrees                     : 0
    faces with skewness > 8   (internal) or 25  (boundary) : 0
    faces with interpolation weights (0..1)  < 0.05        : 0
    faces with volume ratio of neighbour cells < 0.01      : 0
    faces with face twist < 0.02                           : 0
    faces on cells with determinant < 0.001                : 0
Detected 0 illegal faces (concave, zero area or negative cell pyramid volume)
Extruding 2084 out of 3594 faces (57.985531%). Removed extrusion at 0 faces.
Added 5688 out of 10782 cells (52.754591%).
Edge intersection testing:
    Number of edges             : 3744792
    Number of edges to retest   : 0
    Number of intersected edges : 11260

Doing final balancing
---------------------


Writing fields with layer information:
    nSurfaceLayers    : actual number of layers
    thickness         : overall layer thickness
    thicknessFraction : overall layer thickness (fraction of desired thickness)


patch          faces    layers   overall thickness
                                 [m]       [%]
-----          -----    ------   ---       ---
splitterFront  1908     2.47     0.00029   79.8    
splitterRight  234      2.08     0.000234  64.3    
splitterLeft   234      2.08     0.000234  64.3    
splitterBottom 609      0        0         0       
splitterTop    609      0        0         0       

Layer mesh : cells:1230210  faces:3744792  points:1284885
Cells per refinement level:
    0	27901
    1	15664
    2	310977
    3	875668
Writing mesh to time 3e-05
Wrote mesh in = 225.46 s.
Layers added in = 225.46 s.
Checking final mesh ...
Checking faces in error :
    non-orthogonality > 65  degrees                        : 0
    faces with face pyramid volume < 1e-13                 : 0
    faces with face-decomposition tet quality < 1e-15      : 0
    faces with concavity > 80  degrees                     : 0
    faces with skewness > 4   (internal) or 20  (boundary) : 0
    faces with interpolation weights (0..1)  < 0.05        : 0
    faces with volume ratio of neighbour cells < 0.01      : 0
    faces with face twist < 0.02                           : 0
    faces on cells with determinant < 0.001                : 0
Finished meshing without any errors
Finished meshing in = 650.61 s.
End

Finalising parallel run
